<?xml version="1.0" encoding="UTF-8"?>

<!-- generated on 2026-03-18T02:34:00.458650+01:00 by Eclipse SUMO duarouter 1.26.0
<duarouterConfiguration xmlns:xsi="http://www.w3.org/2001/XMLSchema-instance" xsi:noNamespaceSchemaLocation="http://sumo.dlr.de/xsd/duarouterConfiguration.xsd">

    <input>
        <net-file value="/home/miguel/6.Projects/ReplicateSongThesis/sumo_conf/thesisToyNetwork.net.xml"/>
        <route-files value="/home/miguel/6.Projects/ReplicateSongThesis/sumo_conf/temp.trips.xml"/>
    </input>

    <output>
        <output-file value="/home/miguel/6.Projects/ReplicateSongThesis/sumo_conf/temp.rou.xml"/>
    </output>

</duarouterConfiguration>
-->

<routes xmlns:xsi="http://www.w3.org/2001/XMLSchema-instance" xsi:noNamespaceSchemaLocation="http://sumo.dlr.de/xsd/routes_file.xsd">
    <vehicle id="0" depart="0.00">
        <route edges="E0 E1 E5 E6"/>
    </vehicle>
</routes>
