<?xml version="1.0"?>
<trips>
	<trip id="0" depart="0.00" from="E0" to="E6" />
</trips>
