<?xml version="1.0" encoding="UTF-8"?>

<!-- generated on 2026-03-17T15:52:14.593830+01:00 by Eclipse SUMO netedit 1.26.0
<neteditConfiguration xmlns:xsi="http://www.w3.org/2001/XMLSchema-instance" xsi:noNamespaceSchemaLocation="http://sumo.dlr.de/xsd/neteditConfiguration.xsd">

    <input>
        <sumo-net-file value="/home/miguel/6.Projects/ReplicateSongThesis/sumo_conf/songnetwork.net.xml"/>
    </input>

    <output>
        <output-file value="/home/miguel/6.Projects/ReplicateSongThesis/sumo_conf/songnetwork.net.xml"/>
    </output>

    <processing>
        <offset.disable-normalization value="true"/>
    </processing>

    <junctions>
        <no-turnarounds value="true"/>
    </junctions>

    <netedit>
        <new-network value="false"/>
    </netedit>

</neteditConfiguration>
-->

<net version="1.20" junctionCornerDetail="5" limitTurnSpeed="5.50" xmlns:xsi="http://www.w3.org/2001/XMLSchema-instance" xsi:noNamespaceSchemaLocation="http://sumo.dlr.de/xsd/net_file.xsd">

    <location netOffset="0.00,0.00" convBoundary="-41.35,-7.52,51.55,101.21" origBoundary="10000000000.00,10000000000.00,-10000000000.00,-10000000000.00" projParameter="!"/>

    <edge id=":J1_0" function="internal">
        <lane id=":J1_0_0" index="0" speed="6.51" length="8.90" shape="-3.92,-5.92 -6.32,-5.58 -8.06,-4.55 -9.12,-2.84 -9.52,-0.44"/>
    </edge>
    <edge id=":J1_1" function="internal">
        <lane id=":J1_1_0" index="0" speed="13.89" length="14.19" shape="-18.10,-9.05 -3.92,-9.12"/>
    </edge>
    <edge id=":J1_2" function="internal">
        <lane id=":J1_2_0" index="0" speed="7.86" length="10.14" shape="-18.10,-9.05 -14.28,-8.55 -11.57,-6.94 -9.99,-4.24"/>
    </edge>
    <edge id=":J1_4" function="internal">
        <lane id=":J1_4_0" index="0" speed="7.86" length="3.83" shape="-9.99,-4.24 -9.52,-0.44"/>
    </edge>
    <edge id=":J1_3" function="internal">
        <lane id=":J1_3_0" index="0" speed="8.01" length="13.98" shape="-12.72,-0.50 -12.10,-4.27 -10.43,-6.97 -7.70,-8.58 -3.92,-9.12"/>
    </edge>
    <edge id=":J2_0" function="internal">
        <lane id=":J2_0_0" index="0" speed="9.86" length="25.71" shape="21.47,-9.12 27.46,-7.64 30.35,-3.52 30.82,2.80 29.55,10.86"/>
    </edge>
    <edge id=":J2_1" function="internal">
        <lane id=":J2_1_0" index="0" speed="8.19" length="5.21" shape="21.47,-9.12 26.42,-7.50"/>
    </edge>
    <edge id=":J2_6" function="internal">
        <lane id=":J2_6_0" index="0" speed="8.19" length="17.14" shape="26.42,-7.50 27.52,-3.35 25.73,2.23 22.02,8.15"/>
    </edge>
    <edge id=":J2_2" function="internal">
        <lane id=":J2_2_0" index="0" speed="6.93" length="15.52" shape="19.47,6.21 23.05,0.90 24.58,-2.89 24.05,-5.16 21.47,-5.92"/>
    </edge>
    <edge id=":J2_3" function="internal">
        <lane id=":J2_3_0" index="0" speed="6.22" length="15.22" shape="19.47,6.21 22.80,4.02 26.40,4.44 29.05,6.90 29.55,10.86"/>
    </edge>
    <edge id=":J2_4" function="internal">
        <lane id=":J2_4_0" index="0" speed="5.65" length="12.24" shape="26.42,10.18 27.05,5.94 26.52,4.19 24.84,4.92 22.02,8.15"/>
    </edge>
    <edge id=":J2_5" function="internal">
        <lane id=":J2_5_0" index="0" speed="8.63" length="19.41" shape="26.42,10.18 27.43,3.14 26.94,-1.89 24.95,-4.91 21.47,-5.92"/>
    </edge>
    <edge id=":J3_0" function="internal">
        <lane id=":J3_0_0" index="0" speed="13.89" length="20.16" shape="-11.11,56.52 -12.39,52.20 -13.13,46.74 -13.45,41.19 -13.48,36.61"/>
    </edge>
    <edge id=":J3_1" function="internal">
        <lane id=":J3_1_0" index="0" speed="11.68" length="4.19" shape="-11.11,56.52 -11.83,53.05 -11.71,52.42"/>
    </edge>
    <edge id=":J3_6" function="internal">
        <lane id=":J3_6_0" index="0" speed="11.68" length="15.63" shape="-11.71,52.42 -11.06,48.89 -8.81,44.04 -5.07,38.49"/>
    </edge>
    <edge id=":J3_2" function="internal">
        <lane id=":J3_2_0" index="0" speed="10.66" length="16.37" shape="-2.53,40.43 -5.80,45.19 -7.84,49.23 -8.64,52.56 -8.21,55.17"/>
    </edge>
    <edge id=":J3_3" function="internal">
        <lane id=":J3_3_0" index="0" speed="7.61" length="21.89" shape="-2.53,40.43 -7.46,45.79 -10.94,46.93 -12.94,43.88 -13.48,36.61"/>
    </edge>
    <edge id=":J3_4" function="internal">
        <lane id=":J3_4_0" index="0" speed="5.46" length="10.41" shape="-10.28,36.68 -10.03,40.13 -9.07,41.59 -7.42,41.04 -5.07,38.49"/>
    </edge>
    <edge id=":J3_5" function="internal">
        <lane id=":J3_5_0" index="0" speed="13.89" length="18.72" shape="-10.28,36.68 -10.30,41.04 -10.08,46.10 -9.44,51.07 -8.21,55.17"/>
    </edge>
    <edge id=":J4_0" function="internal">
        <lane id=":J4_0_0" index="0" speed="7.70" length="14.06" shape="13.70,83.56 12.97,88.60 13.27,92.30 14.59,94.65 16.94,95.65"/>
    </edge>
    <edge id=":J4_1" function="internal">
        <lane id=":J4_1_0" index="0" speed="7.57" length="21.44" shape="13.70,83.56 11.52,90.31 8.87,92.78 5.73,90.96 2.12,84.85"/>
    </edge>
    <edge id=":J4_2" function="internal">
        <lane id=":J4_2_0" index="0" speed="5.46" length="10.29" shape="5.02,83.50 6.75,86.43 8.26,87.30 9.53,86.12 10.58,82.88"/>
    </edge>
    <edge id=":J4_3" function="internal">
        <lane id=":J4_3_0" index="0" speed="11.52" length="17.69" shape="5.02,83.50 7.76,88.53 10.66,92.23 13.72,94.60 16.94,95.65"/>
    </edge>

    <edge id="-E1" from="J2" to="J1" priority="-1">
        <lane id="-E1_0" index="0" speed="13.89" length="25.38" shape="21.47,-5.92 -3.92,-5.92"/>
    </edge>
    <edge id="-E2" from="J3" to="J2" priority="-1">
        <lane id="-E2_0" index="0" speed="13.89" length="40.55" shape="-5.07,38.49 19.47,6.21"/>
    </edge>
    <edge id="-E3" from="J1" to="J3" priority="-1">
        <lane id="-E3_0" index="0" speed="13.89" length="37.12" shape="-9.52,-0.44 -10.28,36.68"/>
    </edge>
    <edge id="-E4" from="J4" to="J3" priority="-1">
        <lane id="-E4_0" index="0" speed="13.89" length="31.26" shape="2.12,84.85 -11.11,56.52"/>
    </edge>
    <edge id="-E5" from="J4" to="J2" priority="-1">
        <lane id="-E5_0" index="0" speed="13.89" length="74.40" shape="10.58,82.88 26.42,10.18"/>
    </edge>
    <edge id="E0" from="J0" to="J1" priority="-1">
        <lane id="E0_0" index="0" speed="13.89" length="23.26" shape="-41.36,-8.84 -18.10,-9.05"/>
    </edge>
    <edge id="E1" from="J1" to="J2" priority="-1">
        <lane id="E1_0" index="0" speed="13.89" length="25.38" shape="-3.92,-9.12 21.47,-9.12"/>
    </edge>
    <edge id="E2" from="J2" to="J3" priority="-1">
        <lane id="E2_0" index="0" speed="13.89" length="40.55" shape="22.02,8.15 -2.53,40.43"/>
    </edge>
    <edge id="E3" from="J3" to="J1" priority="-1">
        <lane id="E3_0" index="0" speed="13.89" length="37.12" shape="-13.48,36.61 -12.72,-0.50"/>
    </edge>
    <edge id="E4" from="J3" to="J4" priority="-1">
        <lane id="E4_0" index="0" speed="13.89" length="31.26" shape="-8.21,55.17 5.02,83.50"/>
    </edge>
    <edge id="E5" from="J2" to="J4" priority="-1">
        <lane id="E5_0" index="0" speed="13.89" length="74.40" shape="29.55,10.86 13.70,83.56"/>
    </edge>
    <edge id="E6" from="J4" to="J5" priority="-1">
        <lane id="E6_0" index="0" speed="13.89" length="35.01" shape="16.94,95.65 51.73,99.62"/>
    </edge>

    <junction id="J0" type="dead_end" x="-41.35" y="-7.24" incLanes="" intLanes="" shape="-41.35,-7.24 -41.38,-10.44"/>
    <junction id="J1" type="priority" x="-10.97" y="-7.52" incLanes="-E1_0 E0_0 E3_0" intLanes=":J1_0_0 :J1_1_0 :J1_4_0 :J1_3_0" shape="-3.92,-4.32 -3.92,-10.72 -18.12,-10.65 -18.09,-7.45 -15.93,-6.70 -15.19,-5.74 -14.67,-4.40 -14.38,-2.66 -14.32,-0.54 -7.92,-0.40 -7.44,-2.58 -6.88,-3.34 -6.10,-3.88 -5.12,-4.21">
        <request index="0" response="0000" foes="0100" cont="0"/>
        <request index="1" response="0000" foes="1000" cont="0"/>
        <request index="2" response="0001" foes="1001" cont="1"/>
        <request index="3" response="0110" foes="0110" cont="0"/>
    </junction>
    <junction id="J2" type="priority" x="31.92" y="-7.52" incLanes="E1_0 -E2_0 -E5_0" intLanes=":J2_0_0 :J2_6_0 :J2_2_0 :J2_3_0 :J2_4_0 :J2_5_0" shape="21.47,-10.72 21.47,-4.32 22.88,-3.26 22.65,-1.93 21.79,-0.07 20.31,2.32 18.20,5.24 23.29,9.12 24.86,9.84 31.11,11.20 32.17,4.50 32.17,-0.98 31.09,-5.24 28.95,-8.28 25.74,-10.11">
        <request index="0" response="000000" foes="001000" cont="0"/>
        <request index="1" response="110000" foes="111000" cont="1"/>
        <request index="2" response="100000" foes="100000" cont="0"/>
        <request index="3" response="100011" foes="100011" cont="0"/>
        <request index="4" response="000000" foes="000010" cont="0"/>
        <request index="5" response="000000" foes="001110" cont="0"/>
    </junction>
    <junction id="J3" type="priority" x="-12.17" y="50.47" incLanes="-E4_0 E2_0 -E3_0" intLanes=":J3_0_0 :J3_6_0 :J3_2_0 :J3_3_0 :J3_4_0 :J3_5_0" shape="-12.56,57.20 -6.76,54.49 -6.90,51.43 -6.23,49.41 -5.06,47.06 -3.40,44.39 -1.25,41.40 -6.35,37.52 -7.68,38.85 -8.14,38.91 -8.46,38.58 -8.64,37.84 -8.68,36.71 -15.08,36.58 -15.28,41.06 -15.50,44.45 -15.55,47.25 -15.21,49.98 -14.29,53.13">
        <request index="0" response="000000" foes="001000" cont="0"/>
        <request index="1" response="110000" foes="111000" cont="1"/>
        <request index="2" response="100000" foes="100000" cont="0"/>
        <request index="3" response="100011" foes="100011" cont="0"/>
        <request index="4" response="000000" foes="000010" cont="0"/>
        <request index="5" response="000000" foes="001110" cont="0"/>
    </junction>
    <junction id="J4" type="priority" x="9.27" y="96.38" incLanes="E5_0 E4_0" intLanes=":J4_0_0 :J4_1_0 :J4_2_0 :J4_3_0" shape="16.76,97.24 17.12,94.06 15.15,92.73 14.67,91.29 14.53,89.34 14.73,86.88 15.27,83.90 9.01,82.53 8.35,84.30 7.95,84.56 7.50,84.40 7.01,83.82 6.47,82.82 0.67,85.53 2.47,88.75 4.62,91.46 7.13,93.67 9.99,95.37 13.20,96.55">
        <request index="0" response="0000" foes="1000" cont="0"/>
        <request index="1" response="0000" foes="1000" cont="0"/>
        <request index="2" response="0000" foes="0000" cont="0"/>
        <request index="3" response="0011" foes="0011" cont="0"/>
    </junction>
    <junction id="J5" type="dead_end" x="51.55" y="101.21" incLanes="E6_0" intLanes="" shape="51.91,98.03 51.55,101.21"/>

    <junction id=":J1_4_0" type="internal" x="-9.99" y="-4.24" incLanes=":J1_2_0 -E1_0" intLanes=":J1_0_0 :J1_3_0"/>
    <junction id=":J2_6_0" type="internal" x="26.42" y="-7.50" incLanes=":J2_1_0 -E5_0" intLanes=":J2_3_0 :J2_4_0 :J2_5_0"/>
    <junction id=":J3_6_0" type="internal" x="-11.71" y="52.42" incLanes=":J3_1_0 -E3_0" intLanes=":J3_3_0 :J3_4_0 :J3_5_0"/>

    <connection from="-E1" to="-E3" fromLane="0" toLane="0" via=":J1_0_0" dir="r" state="M"/>
    <connection from="-E2" to="-E1" fromLane="0" toLane="0" via=":J2_2_0" dir="r" state="m"/>
    <connection from="-E2" to="E5" fromLane="0" toLane="0" via=":J2_3_0" dir="l" state="m"/>
    <connection from="-E3" to="-E2" fromLane="0" toLane="0" via=":J3_4_0" dir="r" state="M"/>
    <connection from="-E3" to="E4" fromLane="0" toLane="0" via=":J3_5_0" dir="s" state="M"/>
    <connection from="-E4" to="E3" fromLane="0" toLane="0" via=":J3_0_0" dir="s" state="M"/>
    <connection from="-E4" to="-E2" fromLane="0" toLane="0" via=":J3_1_0" dir="l" state="m"/>
    <connection from="-E5" to="E2" fromLane="0" toLane="0" via=":J2_4_0" dir="r" state="M"/>
    <connection from="-E5" to="-E1" fromLane="0" toLane="0" via=":J2_5_0" dir="r" state="M"/>
    <connection from="E0" to="E1" fromLane="0" toLane="0" via=":J1_1_0" dir="s" state="M"/>
    <connection from="E0" to="-E3" fromLane="0" toLane="0" via=":J1_2_0" dir="l" state="m"/>
    <connection from="E1" to="E5" fromLane="0" toLane="0" via=":J2_0_0" dir="l" state="M"/>
    <connection from="E1" to="E2" fromLane="0" toLane="0" via=":J2_1_0" dir="l" state="m"/>
    <connection from="E2" to="E4" fromLane="0" toLane="0" via=":J3_2_0" dir="r" state="m"/>
    <connection from="E2" to="E3" fromLane="0" toLane="0" via=":J3_3_0" dir="l" state="m"/>
    <connection from="E3" to="E1" fromLane="0" toLane="0" via=":J1_3_0" dir="l" state="m"/>
    <connection from="E4" to="-E5" fromLane="0" toLane="0" via=":J4_2_0" dir="r" state="M"/>
    <connection from="E4" to="E6" fromLane="0" toLane="0" via=":J4_3_0" dir="R" state="m"/>
    <connection from="E5" to="E6" fromLane="0" toLane="0" via=":J4_0_0" dir="r" state="M"/>
    <connection from="E5" to="-E4" fromLane="0" toLane="0" via=":J4_1_0" dir="l" state="M"/>

    <connection from=":J1_0" to="-E3" fromLane="0" toLane="0" dir="r" state="M"/>
    <connection from=":J1_1" to="E1" fromLane="0" toLane="0" dir="s" state="M"/>
    <connection from=":J1_2" to="-E3" fromLane="0" toLane="0" via=":J1_4_0" dir="l" state="m"/>
    <connection from=":J1_4" to="-E3" fromLane="0" toLane="0" dir="l" state="M"/>
    <connection from=":J1_3" to="E1" fromLane="0" toLane="0" dir="l" state="M"/>
    <connection from=":J2_0" to="E5" fromLane="0" toLane="0" dir="l" state="M"/>
    <connection from=":J2_1" to="E2" fromLane="0" toLane="0" via=":J2_6_0" dir="l" state="m"/>
    <connection from=":J2_6" to="E2" fromLane="0" toLane="0" dir="l" state="M"/>
    <connection from=":J2_2" to="-E1" fromLane="0" toLane="0" dir="r" state="M"/>
    <connection from=":J2_3" to="E5" fromLane="0" toLane="0" dir="l" state="M"/>
    <connection from=":J2_4" to="E2" fromLane="0" toLane="0" dir="r" state="M"/>
    <connection from=":J2_5" to="-E1" fromLane="0" toLane="0" dir="r" state="M"/>
    <connection from=":J3_0" to="E3" fromLane="0" toLane="0" dir="s" state="M"/>
    <connection from=":J3_1" to="-E2" fromLane="0" toLane="0" via=":J3_6_0" dir="l" state="m"/>
    <connection from=":J3_6" to="-E2" fromLane="0" toLane="0" dir="l" state="M"/>
    <connection from=":J3_2" to="E4" fromLane="0" toLane="0" dir="r" state="M"/>
    <connection from=":J3_3" to="E3" fromLane="0" toLane="0" dir="l" state="M"/>
    <connection from=":J3_4" to="-E2" fromLane="0" toLane="0" dir="r" state="M"/>
    <connection from=":J3_5" to="E4" fromLane="0" toLane="0" dir="s" state="M"/>
    <connection from=":J4_0" to="E6" fromLane="0" toLane="0" dir="r" state="M"/>
    <connection from=":J4_1" to="-E4" fromLane="0" toLane="0" dir="l" state="M"/>
    <connection from=":J4_2" to="-E5" fromLane="0" toLane="0" dir="r" state="M"/>
    <connection from=":J4_3" to="E6" fromLane="0" toLane="0" dir="R" state="M"/>

</net>
