<?xml version="1.0" encoding="UTF-8"?>

<!-- generated on 2026-03-14T14:52:25.281966+01:00 by Eclipse SUMO netconvert 1.26.0
<netconvertConfiguration xmlns:xsi="http://www.w3.org/2001/XMLSchema-instance" xsi:noNamespaceSchemaLocation="http://sumo.dlr.de/xsd/netconvertConfiguration.xsd">

    <input>
        <osm-files value="tibidabo.osm"/>
    </input>

    <output>
        <output-file value="net.net.xml"/>
    </output>

    <projection>
        <proj.utm value="true"/>
    </projection>

    <processing>
        <geometry.remove value="true"/>
        <geometry.min-dist value="1.0"/>
        <geometry.avoid-overlap value="true"/>
    </processing>

    <tls_building>
        <tls.guess value="true"/>
        <tls.join value="true"/>
        <tls.guess-signals value="true"/>
    </tls_building>

    <ramp_guessing>
        <ramps.guess value="true"/>
    </ramp_guessing>

    <junctions>
        <junctions.join value="true"/>
        <junctions.join-dist value="15"/>
        <junctions.corner-detail value="10"/>
        <junctions.internal-link-detail value="10"/>
    </junctions>

    <formats>
        <osm.turn-lanes value="true"/>
    </formats>

</netconvertConfiguration>
-->

<net version="1.20" junctionCornerDetail="10" junctionLinkDetail="10" limitTurnSpeed="5.50" xmlns:xsi="http://www.w3.org/2001/XMLSchema-instance" xsi:noNamespaceSchemaLocation="http://sumo.dlr.de/xsd/net_file.xsd">

    <location netOffset="-425389.26,-4585284.45" convBoundary="0.00,0.00,2613.23,1583.49" origBoundary="2.107134,41.413758,2.138404,41.430073" projParameter="+proj=utm +zone=31 +ellps=WGS84 +datum=WGS84 +units=m +no_defs"/>

    <type id="highway.footway" priority="1" numLanes="1" speed="2.78" allow="pedestrian" oneway="1" width="2.00"/>
    <type id="highway.path" priority="1" numLanes="1" speed="5.56" allow="pedestrian bicycle" oneway="0" width="2.00"/>
    <type id="highway.pedestrian" priority="1" numLanes="1" speed="2.78" allow="pedestrian" oneway="1" width="2.00"/>
    <type id="highway.residential" priority="3" numLanes="1" speed="13.89" disallow="tram rail_urban rail rail_electric rail_fast ship container cable_car subway aircraft wheelchair scooter drone" oneway="0"/>
    <type id="highway.secondary" priority="11" numLanes="1" speed="27.78" disallow="tram rail_urban rail rail_electric rail_fast ship container cable_car subway aircraft wheelchair scooter drone" oneway="0"/>
    <type id="highway.service" priority="1" numLanes="1" speed="5.56" allow="pedestrian delivery bicycle" oneway="0"/>
    <type id="highway.steps" priority="1" numLanes="1" speed="1.39" allow="pedestrian" oneway="1" width="2.00"/>
    <type id="highway.tertiary" priority="10" numLanes="1" speed="22.22" disallow="tram rail_urban rail rail_electric rail_fast ship container cable_car subway aircraft wheelchair scooter drone" oneway="0"/>
    <type id="highway.track" priority="1" numLanes="1" speed="5.56" allow="pedestrian motorcycle moped bicycle" oneway="0"/>
    <type id="highway.unclassified" priority="4" numLanes="1" speed="13.89" disallow="tram rail_urban rail rail_electric rail_fast ship container cable_car subway aircraft wheelchair scooter drone" oneway="0"/>

    <edge id=":10028973279_0" function="internal">
        <lane id=":10028973279_0_0" index="0" allow="pedestrian bicycle" speed="2.97" length="3.17" width="2.00" shape="1355.75,1241.82 1355.39,1242.15 1355.07,1242.37 1354.77,1242.50 1354.51,1242.53 1354.29,1242.45 1354.09,1242.28 1353.93,1242.00 1353.80,1241.63 1353.71,1241.15"/>
    </edge>
    <edge id=":10028987041_0" function="internal">
        <lane id=":10028987041_0_0" index="0" allow="pedestrian bicycle" speed="5.56" length="6.64" width="2.00" shape="1321.09,864.36 1320.62,863.31 1320.17,862.38 1319.73,861.56 1319.30,860.86 1318.89,860.27 1318.48,859.80 1318.09,859.45 1317.71,859.21 1317.35,859.08"/>
    </edge>
    <edge id=":10028987041_1" function="internal">
        <lane id=":10028987041_1_0" index="0" allow="pedestrian bicycle" speed="5.56" length="11.84" width="2.00" shape="1321.09,864.36 1320.43,862.59 1320.06,861.07 1319.98,859.80 1320.19,858.77 1320.69,857.99 1321.48,857.46 1322.57,857.18 1323.94,857.15 1325.61,857.36"/>
    </edge>
    <edge id=":10028987041_2" function="internal">
        <lane id=":10028987041_2_0" index="0" allow="pedestrian bicycle" speed="2.90" length="2.95" width="2.00" shape="1321.09,864.36 1321.14,863.91 1321.23,863.55 1321.35,863.28 1321.52,863.10 1321.72,863.02 1321.97,863.02 1322.25,863.12 1322.57,863.30 1322.93,863.58"/>
    </edge>
    <edge id=":10028987041_3" function="internal">
        <lane id=":10028987041_3_0" index="0" allow="pedestrian bicycle" speed="4.44" length="5.29" width="2.00" shape="1325.03,860.51 1324.27,860.41 1323.64,860.42 1323.15,860.54 1322.78,860.77 1322.55,861.11 1322.45,861.56 1322.48,862.13 1322.64,862.80 1322.93,863.58"/>
    </edge>
    <edge id=":10028987041_4" function="internal">
        <lane id=":10028987041_4_0" index="0" allow="pedestrian motorcycle moped bicycle" speed="5.56" length="7.81" shape="1325.03,860.51 1317.35,859.08"/>
    </edge>
    <edge id=":10028987041_5" function="internal">
        <lane id=":10028987041_5_0" index="0" allow="pedestrian motorcycle moped bicycle" speed="3.66" length="4.72" shape="1325.03,860.51 1324.47,860.04 1324.07,859.60 1323.82,859.20 1323.73,858.82 1323.80,858.47 1324.02,858.15 1324.39,857.86 1324.93,857.59 1325.61,857.36"/>
    </edge>
    <edge id=":10028987041_6" function="internal">
        <lane id=":10028987041_6_0" index="0" allow="pedestrian motorcycle moped bicycle" speed="5.56" length="7.81" shape="1317.93,855.93 1325.61,857.36"/>
    </edge>
    <edge id=":10028987041_7" function="internal">
        <lane id=":10028987041_7_0" index="0" allow="pedestrian bicycle" speed="5.56" length="9.32" width="2.00" shape="1317.93,855.93 1318.36,856.10 1318.83,856.43 1319.32,856.94 1319.85,857.62 1320.40,858.46 1320.99,859.49 1321.61,860.68 1322.25,862.04 1322.93,863.58"/>
    </edge>
    <edge id=":10028987041_8" function="internal">
        <lane id=":10028987041_8_0" index="0" allow="pedestrian motorcycle moped bicycle" speed="3.66" length="4.72" shape="1317.93,855.93 1318.49,856.40 1318.89,856.83 1319.13,857.24 1319.23,857.62 1319.16,857.97 1318.94,858.29 1318.57,858.58 1318.04,858.85 1317.35,859.08"/>
    </edge>
    <edge id=":10028987058_0" function="internal">
        <lane id=":10028987058_0_0" index="0" allow="pedestrian bicycle" speed="4.22" length="4.18" width="2.00" shape="1349.93,1161.73 1349.52,1161.33 1349.12,1161.03 1348.73,1160.85 1348.34,1160.76 1347.96,1160.78 1347.58,1160.91 1347.22,1161.15 1346.85,1161.49 1346.50,1161.93"/>
    </edge>
    <edge id=":10028987058_1" function="internal">
        <lane id=":10028987058_1_0" index="0" allow="pedestrian bicycle" speed="5.56" length="6.92" width="2.00" shape="1349.93,1161.73 1349.23,1160.97 1348.67,1160.35 1348.20,1159.84 1347.81,1159.36 1347.46,1158.89 1347.14,1158.38 1346.82,1157.77 1346.47,1157.01 1346.07,1156.07"/>
    </edge>
    <edge id=":10028987058_2" function="internal">
        <lane id=":10028987058_2_0" index="0" allow="pedestrian bicycle" speed="2.90" length="2.95" width="2.00" shape="1349.93,1161.73 1349.83,1161.29 1349.79,1160.92 1349.83,1160.62 1349.93,1160.40 1350.09,1160.25 1350.32,1160.18 1350.62,1160.17 1350.98,1160.25 1351.41,1160.39"/>
    </edge>
    <edge id=":10028987058_3" function="internal">
        <lane id=":10028987058_3_0" index="0" allow="pedestrian bicycle" speed="5.56" length="6.23" width="2.00" shape="1347.92,1155.30 1348.28,1156.15 1348.60,1156.83 1348.89,1157.38 1349.18,1157.84 1349.49,1158.26 1349.85,1158.69 1350.27,1159.15 1350.79,1159.71 1351.41,1160.39"/>
    </edge>
    <edge id=":10028987058_4" function="internal">
        <lane id=":10028987058_4_0" index="0" allow="pedestrian bicycle" speed="5.56" length="7.09" width="2.00" shape="1347.92,1155.30 1348.14,1155.96 1348.27,1156.64 1348.30,1157.33 1348.23,1158.05 1348.08,1158.79 1347.82,1159.55 1347.48,1160.32 1347.03,1161.12 1346.50,1161.93"/>
    </edge>
    <edge id=":10028987058_5" function="internal">
        <lane id=":10028987058_5_0" index="0" allow="pedestrian bicycle" speed="2.90" length="2.95" width="2.00" shape="1347.92,1155.30 1347.87,1155.75 1347.77,1156.11 1347.64,1156.38 1347.48,1156.56 1347.27,1156.64 1347.03,1156.63 1346.75,1156.54 1346.43,1156.35 1346.07,1156.07"/>
    </edge>
    <edge id=":10028987058_6" function="internal">
        <lane id=":10028987058_6_0" index="0" allow="pedestrian bicycle" speed="5.56" length="5.07" width="2.00" shape="1344.86,1160.78 1345.27,1160.17 1345.61,1159.57 1345.88,1159.00 1346.09,1158.46 1346.22,1157.93 1346.29,1157.43 1346.28,1156.96 1346.21,1156.50 1346.07,1156.07"/>
    </edge>
    <edge id=":10028987058_7" function="internal">
        <lane id=":10028987058_7_0" index="0" allow="pedestrian bicycle" speed="5.56" length="7.99" width="2.00" shape="1344.86,1160.78 1345.54,1159.93 1346.24,1159.28 1346.94,1158.83 1347.65,1158.59 1348.38,1158.54 1349.12,1158.70 1349.87,1159.06 1350.64,1159.62 1351.41,1160.39"/>
    </edge>
    <edge id=":10028987058_8" function="internal">
        <lane id=":10028987058_8_0" index="0" allow="pedestrian bicycle" speed="2.90" length="2.95" width="2.00" shape="1344.86,1160.78 1345.27,1160.59 1345.63,1160.47 1345.92,1160.44 1346.16,1160.49 1346.34,1160.61 1346.47,1160.82 1346.53,1161.11 1346.54,1161.48 1346.50,1161.93"/>
    </edge>
    <edge id=":10028987059_0" function="internal">
        <lane id=":10028987059_0_0" index="0" allow="pedestrian bicycle" speed="3.96" length="4.67" width="2.00" shape="1342.64,1171.02 1342.52,1170.31 1342.34,1169.75 1342.11,1169.34 1341.84,1169.08 1341.51,1168.97 1341.13,1169.01 1340.70,1169.21 1340.23,1169.55 1339.70,1170.05"/>
    </edge>
    <edge id=":10028987059_1" function="internal">
        <lane id=":10028987059_1_0" index="0" allow="pedestrian bicycle" speed="5.56" length="8.59" width="2.00" shape="1342.64,1171.02 1342.45,1169.78 1342.25,1168.73 1342.08,1167.84 1341.97,1167.04 1341.94,1166.29 1342.04,1165.55 1342.30,1164.76 1342.74,1163.87 1343.41,1162.84"/>
    </edge>
    <edge id=":10028987059_2" function="internal">
        <lane id=":10028987059_2_0" index="0" allow="pedestrian bicycle" speed="2.90" length="2.95" width="2.00" shape="1342.64,1171.02 1342.81,1170.60 1343.00,1170.28 1343.19,1170.06 1343.40,1169.93 1343.62,1169.90 1343.85,1169.97 1344.10,1170.14 1344.36,1170.40 1344.63,1170.77"/>
    </edge>
    <edge id=":10028987059_3" function="internal">
        <lane id=":10028987059_3_0" index="0" allow="pedestrian bicycle" speed="5.56" length="7.10" width="2.00" shape="1345.04,1164.00 1344.50,1164.85 1344.15,1165.58 1343.97,1166.23 1343.92,1166.85 1343.98,1167.47 1344.11,1168.13 1344.28,1168.87 1344.46,1169.74 1344.63,1170.77"/>
    </edge>
    <edge id=":10028987059_4" function="internal">
        <lane id=":10028987059_4_0" index="0" allow="pedestrian bicycle" speed="5.56" length="8.09" width="2.00" shape="1345.04,1164.00 1344.34,1164.98 1343.75,1165.75 1343.24,1166.38 1342.78,1166.92 1342.31,1167.41 1341.81,1167.92 1341.23,1168.49 1340.54,1169.18 1339.70,1170.05"/>
    </edge>
    <edge id=":10028987059_5" function="internal">
        <lane id=":10028987059_5_0" index="0" allow="pedestrian bicycle" speed="2.90" length="2.95" width="2.00" shape="1345.04,1164.00 1344.63,1164.19 1344.28,1164.30 1343.98,1164.34 1343.75,1164.29 1343.56,1164.16 1343.44,1163.95 1343.37,1163.66 1343.36,1163.29 1343.41,1162.84"/>
    </edge>
    <edge id=":10028987059_6" function="internal">
        <lane id=":10028987059_6_0" index="0" allow="pedestrian bicycle" speed="5.56" length="7.79" width="2.00" shape="1338.26,1168.66 1339.07,1167.83 1339.74,1167.16 1340.30,1166.61 1340.78,1166.13 1341.23,1165.65 1341.68,1165.14 1342.17,1164.53 1342.73,1163.78 1343.41,1162.84"/>
    </edge>
    <edge id=":10028987059_7" function="internal">
        <lane id=":10028987059_7_0" index="0" allow="pedestrian bicycle" speed="5.55" length="10.10" width="2.00" shape="1338.26,1168.66 1339.40,1167.58 1340.43,1166.84 1341.36,1166.42 1342.17,1166.32 1342.88,1166.56 1343.48,1167.12 1343.97,1168.01 1344.35,1169.22 1344.63,1170.77"/>
    </edge>
    <edge id=":10028987059_8" function="internal">
        <lane id=":10028987059_8_0" index="0" allow="pedestrian bicycle" speed="2.90" length="2.95" width="2.00" shape="1338.26,1168.66 1338.69,1168.53 1339.06,1168.47 1339.36,1168.48 1339.58,1168.57 1339.74,1168.72 1339.84,1168.95 1339.86,1169.24 1339.81,1169.61 1339.70,1170.05"/>
    </edge>
    <edge id=":1004041298_0" function="internal">
        <lane id=":1004041298_0_0" index="0" allow="pedestrian motorcycle moped bicycle" speed="5.56" length="19.40" shape="688.81,500.38 671.19,492.27"/>
    </edge>
    <edge id=":1004041298_1" function="internal">
        <lane id=":1004041298_1_0" index="0" allow="pedestrian bicycle" speed="5.56" length="19.90" width="2.00" shape="688.81,500.38 687.25,499.48 685.61,498.20 683.93,496.62 682.22,494.86 680.52,493.03 678.84,491.22 677.22,489.54 675.67,488.09 674.21,486.98"/>
    </edge>
    <edge id=":1004041298_2" function="internal">
        <lane id=":1004041298_2_0" index="0" allow="pedestrian motorcycle moped bicycle" speed="3.66" length="4.72" shape="688.81,500.38 688.38,499.80 688.09,499.29 687.94,498.83 687.94,498.45 688.08,498.12 688.37,497.86 688.80,497.66 689.38,497.52 690.10,497.45"/>
    </edge>
    <edge id=":1004041298_3" function="internal">
        <lane id=":1004041298_3_0" index="0" allow="pedestrian bicycle" speed="5.56" length="18.73" width="2.00" shape="675.70,485.56 677.15,486.62 678.68,487.93 680.28,489.41 681.92,490.98 683.59,492.56 685.26,494.08 686.92,495.46 688.54,496.60 690.10,497.45"/>
    </edge>
    <edge id=":1004041298_4" function="internal">
        <lane id=":1004041298_4_0" index="0" allow="pedestrian bicycle" speed="5.14" length="11.52" width="2.00" shape="675.70,485.56 676.67,486.49 677.13,487.59 677.13,488.76 676.74,489.91 676.03,490.96 675.05,491.81 673.87,492.37 672.57,492.55 671.19,492.27"/>
    </edge>
    <edge id=":1004041298_5" function="internal">
        <lane id=":1004041298_5_0" index="0" allow="pedestrian bicycle" speed="2.92" length="3.03" width="2.00" shape="675.70,485.56 675.82,486.01 675.86,486.39 675.84,486.70 675.74,486.93 675.58,487.08 675.34,487.17 675.03,487.18 674.66,487.12 674.21,486.98"/>
    </edge>
    <edge id=":1004041298_6" function="internal">
        <lane id=":1004041298_6_0" index="0" allow="pedestrian bicycle" speed="5.56" length="14.85" width="2.00" shape="672.62,489.39 675.33,490.43 677.40,491.14 678.84,491.53 679.65,491.58 679.83,491.32 679.38,490.72 678.29,489.80 676.57,488.55 674.21,486.98"/>
    </edge>
    <edge id=":1004041298_7" function="internal">
        <lane id=":1004041298_7_0" index="0" allow="pedestrian motorcycle moped bicycle" speed="5.56" length="19.25" shape="672.62,489.39 690.10,497.45"/>
    </edge>
    <edge id=":1004041298_8" function="internal">
        <lane id=":1004041298_8_0" index="0" allow="pedestrian motorcycle moped bicycle" speed="3.67" length="4.74" shape="672.62,489.39 673.03,489.99 673.30,490.53 673.42,490.99 673.40,491.38 673.24,491.70 672.94,491.95 672.50,492.12 671.92,492.23 671.19,492.27"/>
    </edge>
    <edge id=":1004041384_0" function="internal">
        <lane id=":1004041384_0_0" index="0" allow="pedestrian bicycle" speed="5.56" length="9.01" width="2.00" shape="720.32,365.32 719.39,374.29"/>
    </edge>
    <edge id=":1004041384_1" function="internal">
        <lane id=":1004041384_1_0" index="0" allow="pedestrian bicycle" speed="5.56" length="9.60" width="2.00" shape="720.32,365.32 720.18,366.67 719.91,367.72 719.51,368.54 719.00,369.20 718.38,369.77 717.64,370.33 716.80,370.95 715.86,371.69 714.82,372.64"/>
    </edge>
    <edge id=":1004041384_2" function="internal">
        <lane id=":1004041384_2_0" index="0" allow="pedestrian bicycle" speed="2.90" length="2.95" width="2.00" shape="720.32,365.32 720.08,365.71 719.84,365.99 719.61,366.18 719.38,366.26 719.16,366.25 718.94,366.14 718.73,365.93 718.52,365.63 718.32,365.22"/>
    </edge>
    <edge id=":1004041384_3" function="internal">
        <lane id=":1004041384_3_0" index="0" allow="pedestrian bicycle" speed="5.56" length="7.97" width="2.00" shape="713.54,371.09 714.41,370.32 715.21,369.72 715.93,369.23 716.58,368.80 717.14,368.35 717.60,367.83 717.95,367.18 718.20,366.33 718.32,365.22"/>
    </edge>
    <edge id=":1004041384_4" function="internal">
        <lane id=":1004041384_4_0" index="0" allow="pedestrian bicycle" speed="5.56" length="11.87" width="2.00" shape="713.54,371.09 714.96,369.80 716.20,368.91 717.24,368.44 718.08,368.39 718.73,368.74 719.19,369.51 719.45,370.69 719.52,372.28 719.39,374.29"/>
    </edge>
    <edge id=":1004041384_5" function="internal">
        <lane id=":1004041384_5_0" index="0" allow="pedestrian bicycle" speed="2.90" length="2.96" width="2.00" shape="713.54,371.09 713.99,371.01 714.36,370.99 714.65,371.04 714.87,371.15 715.01,371.32 715.08,371.55 715.07,371.85 714.98,372.21 714.82,372.64"/>
    </edge>
    <edge id=":1004041384_6" function="internal">
        <lane id=":1004041384_6_0" index="0" allow="pedestrian bicycle" speed="3.99" length="5.24" width="2.00" shape="717.41,374.03 717.46,373.15 717.43,372.45 717.32,371.93 717.11,371.59 716.83,371.44 716.45,371.47 715.99,371.68 715.45,372.07 714.82,372.64"/>
    </edge>
    <edge id=":1004041384_7" function="internal">
        <lane id=":1004041384_7_0" index="0" allow="pedestrian bicycle" speed="5.56" length="8.86" width="2.00" shape="717.41,374.03 718.32,365.22"/>
    </edge>
    <edge id=":1004041384_8" function="internal">
        <lane id=":1004041384_8_0" index="0" allow="pedestrian bicycle" speed="2.90" length="2.95" width="2.00" shape="717.41,374.03 717.68,373.67 717.94,373.40 718.18,373.23 718.41,373.16 718.63,373.19 718.84,373.32 719.04,373.54 719.22,373.87 719.39,374.29"/>
    </edge>
    <edge id=":1004063297_0" function="internal">
        <lane id=":1004063297_0_0" index="0" allow="pedestrian bicycle" speed="2.90" length="2.95" width="2.00" shape="461.53,402.05 461.30,402.44 461.07,402.73 460.84,402.93 460.62,403.02 460.40,403.01 460.17,402.91 459.96,402.71 459.74,402.41 459.53,402.01"/>
    </edge>
    <edge id=":1004063308_0" function="internal">
        <lane id=":1004063308_0_0" index="0" allow="pedestrian bicycle" speed="5.56" length="8.08" width="2.00" shape="379.91,540.39 379.11,541.22 378.55,541.96 378.20,542.64 378.01,543.32 377.93,544.02 377.91,544.79 377.91,545.66 377.88,546.66 377.77,547.84"/>
    </edge>
    <edge id=":1004063308_1" function="internal">
        <lane id=":1004063308_1_0" index="0" allow="pedestrian bicycle" speed="5.56" length="8.86" width="2.00" shape="379.91,540.39 373.19,546.18"/>
    </edge>
    <edge id=":1004063308_2" function="internal">
        <lane id=":1004063308_2_0" index="0" allow="pedestrian bicycle" speed="2.90" length="2.95" width="2.00" shape="379.91,540.39 379.47,540.50 379.10,540.54 378.80,540.51 378.58,540.42 378.43,540.25 378.35,540.02 378.34,539.73 378.41,539.36 378.55,538.93"/>
    </edge>
    <edge id=":1004063308_3" function="internal">
        <lane id=":1004063308_3_0" index="0" allow="pedestrian bicycle" speed="5.56" length="8.76" width="2.00" shape="371.91,544.64 378.55,538.93"/>
    </edge>
    <edge id=":1004063308_4" function="internal">
        <lane id=":1004063308_4_0" index="0" allow="pedestrian bicycle" speed="5.56" length="11.28" width="2.00" shape="371.91,544.64 373.36,543.52 374.62,542.77 375.67,542.39 376.52,542.38 377.18,542.73 377.63,543.46 377.88,544.55 377.93,546.01 377.77,547.84"/>
    </edge>
    <edge id=":1004063308_5" function="internal">
        <lane id=":1004063308_5_0" index="0" allow="pedestrian bicycle" speed="2.90" length="2.95" width="2.00" shape="371.91,544.64 372.35,544.56 372.72,544.54 373.02,544.58 373.24,544.69 373.38,544.86 373.44,545.09 373.44,545.39 373.35,545.75 373.19,546.18"/>
    </edge>
    <edge id=":1004063308_6" function="internal">
        <lane id=":1004063308_6_0" index="0" allow="pedestrian bicycle" speed="3.96" length="5.00" width="2.00" shape="375.79,547.59 375.86,546.78 375.83,546.14 375.72,545.65 375.52,545.33 375.24,545.17 374.86,545.18 374.39,545.35 373.84,545.68 373.19,546.18"/>
    </edge>
    <edge id=":1004063308_7" function="internal">
        <lane id=":1004063308_7_0" index="0" allow="pedestrian bicycle" speed="5.56" length="9.46" width="2.00" shape="375.79,547.59 375.92,546.21 375.98,545.04 376.02,544.03 376.08,543.14 376.21,542.33 376.48,541.55 376.92,540.75 377.59,539.90 378.55,538.93"/>
    </edge>
    <edge id=":1004063308_8" function="internal">
        <lane id=":1004063308_8_0" index="0" allow="pedestrian bicycle" speed="2.90" length="2.95" width="2.00" shape="375.79,547.59 376.06,547.23 376.32,546.96 376.56,546.79 376.79,546.72 377.01,546.75 377.22,546.88 377.42,547.10 377.60,547.42 377.77,547.84"/>
    </edge>
    <edge id=":10893194506_0" function="internal">
        <lane id=":10893194506_0_0" index="0" disallow="tram rail_urban rail rail_electric rail_fast ship container cable_car subway aircraft wheelchair scooter drone" speed="8.33" length="47.49" shape="880.87,402.07 878.41,400.79 874.34,398.54 869.12,395.59 863.22,392.22 857.11,388.69 851.24,385.27 846.07,382.23 842.08,379.84 839.72,378.37"/>
    </edge>
    <edge id=":10893194506_1" function="internal">
        <lane id=":10893194506_1_0" index="0" allow="pedestrian bicycle" speed="6.95" length="8.93" width="2.00" shape="880.87,402.07 878.48,400.66 874.59,398.06 873.39,397.21"/>
    </edge>
    <edge id=":10893194506_7" function="internal">
        <lane id=":10893194506_7_0" index="0" allow="pedestrian bicycle" speed="6.95" length="38.63" width="2.00" shape="873.39,397.21 869.67,394.59 864.16,390.56 858.49,386.29 853.12,382.10 848.49,378.31 845.05,375.23 843.23,373.18"/>
    </edge>
    <edge id=":10893194506_2" function="internal">
        <lane id=":10893194506_2_0" index="0" allow="pedestrian bicycle" speed="6.95" length="45.81" width="2.00" shape="845.14,372.48 846.94,374.46 850.34,377.34 854.89,380.84 860.18,384.68 865.75,388.58 871.18,392.26 876.02,395.44 879.86,397.84 882.23,399.17"/>
    </edge>
    <edge id=":10893194506_3" function="internal">
        <lane id=":10893194506_3_0" index="0" allow="pedestrian bicycle" speed="6.93" length="20.06" width="2.00" shape="845.14,372.48 846.94,375.68 848.15,378.23 848.75,380.16 848.75,381.45 848.14,382.10 846.94,382.12 845.14,381.51 842.73,380.26 839.72,378.37"/>
    </edge>
    <edge id=":10893194506_4" function="internal">
        <lane id=":10893194506_4_0" index="0" allow="pedestrian bicycle" speed="2.91" length="3.01" width="2.00" shape="845.14,372.48 845.07,372.94 844.96,373.30 844.81,373.57 844.63,373.74 844.42,373.82 844.17,373.80 843.89,373.69 843.58,373.48 843.23,373.18"/>
    </edge>
    <edge id=":10893194506_5" function="internal">
        <lane id=":10893194506_5_0" index="0" allow="pedestrian bicycle" speed="4.69" length="7.79" width="2.00" shape="841.10,375.45 842.27,376.18 843.21,376.67 843.91,376.91 844.38,376.90 844.62,376.65 844.62,376.15 844.39,375.41 843.92,374.42 843.23,373.18"/>
    </edge>
    <edge id=":10893194506_6" function="internal">
        <lane id=":10893194506_6_0" index="0" disallow="tram rail_urban rail rail_electric rail_fast ship container cable_car subway aircraft wheelchair scooter drone" speed="8.33" length="47.49" shape="841.10,375.45 843.46,376.92 847.45,379.31 852.61,382.36 858.48,385.78 864.59,389.31 870.48,392.69 875.70,395.64 879.77,397.89 882.23,399.17"/>
    </edge>
    <edge id=":10893194529_0" function="internal">
        <lane id=":10893194529_0_0" index="0" allow="pedestrian bicycle" speed="4.63" length="4.78" width="2.00" shape="804.99,276.59 804.69,276.06 804.37,275.65 804.01,275.36 803.61,275.18 803.18,275.12 802.71,275.18 802.21,275.36 801.68,275.65 801.11,276.06"/>
    </edge>
    <edge id=":10893194529_1" function="internal">
        <lane id=":10893194529_1_0" index="0" disallow="tram rail_urban rail rail_electric rail_fast ship container cable_car subway aircraft wheelchair scooter drone" speed="13.89" length="7.11" shape="804.99,276.59 801.97,270.14"/>
    </edge>
    <edge id=":10893194529_2" function="internal">
        <lane id=":10893194529_2_0" index="0" disallow="tram rail_urban rail rail_electric rail_fast ship container cable_car subway aircraft wheelchair scooter drone" speed="13.89" length="7.11" shape="804.87,268.79 807.88,275.23"/>
    </edge>
    <edge id=":10893194529_3" function="internal">
        <lane id=":10893194529_3_0" index="0" allow="pedestrian bicycle" speed="7.04" length="1.98" width="2.00" shape="804.87,268.79 805.11,269.49 805.19,270.22 805.13,270.72"/>
    </edge>
    <edge id=":10893194529_7" function="internal">
        <lane id=":10893194529_7_0" index="0" allow="pedestrian bicycle" speed="7.04" length="6.83" width="2.00" shape="805.13,270.72 805.10,270.98 804.84,271.76 804.42,272.57 803.84,273.40 803.09,274.26 802.18,275.15 801.11,276.06"/>
    </edge>
    <edge id=":10893194529_4" function="internal">
        <lane id=":10893194529_4_0" index="0" allow="pedestrian bicycle" speed="5.44" length="5.23" width="2.00" shape="799.86,274.50 800.48,273.97 801.01,273.45 801.43,272.94 801.77,272.45 802.00,271.96 802.14,271.49 802.18,271.03 802.12,270.58 801.97,270.14"/>
    </edge>
    <edge id=":10893194529_5" function="internal">
        <lane id=":10893194529_5_0" index="0" allow="pedestrian bicycle" speed="6.13" length="9.80" width="2.00" shape="799.86,274.50 801.06,273.63 802.19,272.99 803.23,272.59 804.20,272.44 805.10,272.52 805.91,272.84 806.65,273.40 807.30,274.19 807.88,275.23"/>
    </edge>
    <edge id=":10893194529_6" function="internal">
        <lane id=":10893194529_6_0" index="0" allow="pedestrian bicycle" speed="2.90" length="2.95" width="2.00" shape="799.86,274.50 800.30,274.43 800.67,274.42 800.97,274.47 801.18,274.58 801.32,274.75 801.38,274.99 801.37,275.28 801.28,275.64 801.11,276.06"/>
    </edge>
    <edge id=":10991385370_0" function="internal">
        <lane id=":10991385370_0_0" index="0" allow="pedestrian bicycle" speed="2.90" length="2.95" width="2.00" shape="1366.50,1181.53 1366.36,1181.96 1366.20,1182.30 1366.02,1182.54 1365.82,1182.68 1365.61,1182.72 1365.37,1182.67 1365.11,1182.52 1364.84,1182.27 1364.54,1181.93"/>
    </edge>
    <edge id=":11257036511_0" function="internal">
        <lane id=":11257036511_0_0" index="0" allow="pedestrian delivery bicycle" speed="4.95" length="8.79" shape="929.94,527.64 929.65,526.04 929.33,524.81 928.98,523.96 928.61,523.49 928.20,523.39 927.78,523.67 927.32,524.33 926.84,525.36 926.33,526.78"/>
    </edge>
    <edge id=":11257036511_1" function="internal">
        <lane id=":11257036511_1_0" index="0" allow="pedestrian delivery bicycle" speed="5.56" length="12.66" shape="929.94,527.64 927.99,515.14"/>
    </edge>
    <edge id=":11257036511_2" function="internal">
        <lane id=":11257036511_2_0" index="0" allow="pedestrian delivery bicycle" speed="3.66" length="4.72" shape="929.94,527.64 930.20,526.96 930.48,526.44 930.78,526.07 931.10,525.86 931.46,525.81 931.83,525.91 932.23,526.17 932.66,526.58 933.11,527.15"/>
    </edge>
    <edge id=":11257036511_3" function="internal">
        <lane id=":11257036511_3_0" index="0" allow="pedestrian delivery bicycle" speed="5.56" length="12.65" shape="931.15,514.65 933.11,527.15"/>
    </edge>
    <edge id=":11257036511_4" function="internal">
        <lane id=":11257036511_4_0" index="0" allow="pedestrian delivery bicycle" speed="5.56" length="13.32" shape="931.15,514.65 931.24,516.21 931.03,517.62 930.59,518.93 929.97,520.17 929.23,521.39 928.44,522.62 927.65,523.90 926.93,525.27 926.33,526.78"/>
    </edge>
    <edge id=":11257036511_5" function="internal">
        <lane id=":11257036511_5_0" index="0" allow="pedestrian delivery bicycle" speed="3.66" length="4.72" shape="931.15,514.65 930.90,515.33 930.62,515.85 930.32,516.22 929.99,516.43 929.64,516.48 929.26,516.38 928.86,516.12 928.44,515.71 927.99,515.14"/>
    </edge>
    <edge id=":11257036511_6" function="internal">
        <lane id=":11257036511_6_0" index="0" allow="pedestrian delivery bicycle" speed="5.56" length="10.82" shape="923.65,524.66 924.24,523.24 924.92,522.11 925.64,521.18 926.35,520.36 927.01,519.58 927.55,518.75 927.93,517.79 928.10,516.61 927.99,515.14"/>
    </edge>
    <edge id=":11257036511_7" function="internal">
        <lane id=":11257036511_7_0" index="0" allow="pedestrian delivery bicycle" speed="5.56" length="13.55" shape="923.65,524.66 924.39,523.21 925.43,522.27 926.67,521.82 928.01,521.81 929.37,522.20 930.66,522.97 931.77,524.08 932.62,525.48 933.11,527.15"/>
    </edge>
    <edge id=":11257036511_8" function="internal">
        <lane id=":11257036511_8_0" index="0" allow="pedestrian delivery bicycle" speed="3.74" length="5.03" shape="923.65,524.66 924.37,524.36 924.98,524.20 925.49,524.17 925.89,524.28 926.19,524.51 926.38,524.88 926.47,525.38 926.45,526.01 926.33,526.78"/>
    </edge>
    <edge id=":11257036519_0" function="internal">
        <lane id=":11257036519_0_0" index="0" allow="pedestrian delivery bicycle" speed="5.56" length="10.23" shape="931.30,536.38 924.25,543.79"/>
    </edge>
    <edge id=":11257036519_1" function="internal">
        <lane id=":11257036519_1_0" index="0" allow="pedestrian delivery bicycle" speed="5.56" length="16.65" shape="931.30,536.38 929.17,538.38 927.32,539.80 925.74,540.65 924.43,540.94 923.40,540.65 922.65,539.80 922.17,538.38 921.97,536.39 922.05,533.83"/>
    </edge>
    <edge id=":11257036519_2" function="internal">
        <lane id=":11257036519_2_0" index="0" allow="pedestrian delivery bicycle" speed="3.66" length="4.72" shape="931.30,536.38 930.60,536.58 930.02,536.67 929.54,536.64 929.18,536.50 928.93,536.25 928.79,535.89 928.76,535.41 928.84,534.83 929.03,534.13"/>
    </edge>