<?xml version="1.0" encoding="UTF-8"?>

<!-- generated on 2026-03-04T10:15:21.309058+01:00 by Eclipse SUMO netconvert 1.26.0
<netconvertConfiguration xmlns:xsi="http://www.w3.org/2001/XMLSchema-instance" xsi:noNamespaceSchemaLocation="http://sumo.dlr.de/xsd/netconvertConfiguration.xsd">

    <input>
        <osm-files value="tibidabo.osm"/>
    </input>

    <output>
        <output-file value="net.net.xml"/>
    </output>

    <projection>
        <proj.utm value="true"/>
    </projection>

    <processing>
        <geometry.remove value="true"/>
        <geometry.min-dist value="1.0"/>
        <geometry.avoid-overlap value="true"/>
    </processing>

    <tls_building>
        <tls.guess value="true"/>
        <tls.join value="true"/>
        <tls.guess-signals value="true"/>
    </tls_building>

    <ramp_guessing>
        <ramps.guess value="true"/>
    </ramp_guessing>

    <junctions>
        <junctions.join value="true"/>
        <junctions.join-dist value="15"/>
        <junctions.corner-detail value="10"/>
        <junctions.internal-link-detail value="10"/>
    </junctions>

    <formats>
        <osm.turn-lanes value="true"/>
    </formats>

</netconvertConfiguration>
-->

<net version="1.20" junctionCornerDetail="10" junctionLinkDetail="10" limitTurnSpeed="5.50" xmlns:xsi="http://www.w3.org/2001/XMLSchema-instance" xsi:noNamespaceSchemaLocation="http://sumo.dlr.de/xsd/net_file.xsd">

    <location netOffset="-425438.24,-4585284.45" convBoundary="0.00,0.00,1718.75,1577.15" origBoundary="2.107694,41.413758,2.128317,41.441707" projParameter="+proj=utm +zone=31 +ellps=WGS84 +datum=WGS84 +units=m +no_defs"/>

    <type id="highway.footway" priority="1" numLanes="1" speed="2.78" allow="pedestrian" oneway="1" width="2.00"/>
    <type id="highway.path" priority="1" numLanes="1" speed="5.56" allow="pedestrian bicycle" oneway="0" width="2.00"/>
    <type id="highway.pedestrian" priority="1" numLanes="1" speed="2.78" allow="pedestrian" oneway="1" width="2.00"/>
    <type id="highway.residential" priority="3" numLanes="1" speed="13.89" disallow="tram rail_urban rail rail_electric rail_fast ship container cable_car subway aircraft wheelchair scooter drone" oneway="0"/>
    <type id="highway.secondary" priority="11" numLanes="1" speed="27.78" disallow="tram rail_urban rail rail_electric rail_fast ship container cable_car subway aircraft wheelchair scooter drone" oneway="0"/>
    <type id="highway.service" priority="1" numLanes="1" speed="5.56" allow="pedestrian delivery bicycle" oneway="0"/>
    <type id="highway.steps" priority="1" numLanes="1" speed="1.39" allow="pedestrian" oneway="1" width="2.00"/>
    <type id="highway.tertiary" priority="10" numLanes="1" speed="22.22" disallow="tram rail_urban rail rail_electric rail_fast ship container cable_car subway aircraft wheelchair scooter drone" oneway="0"/>
    <type id="highway.track" priority="1" numLanes="1" speed="5.56" allow="pedestrian motorcycle moped bicycle" oneway="0"/>
    <type id="highway.unclassified" priority="4" numLanes="1" speed="13.89" disallow="tram rail_urban rail rail_electric rail_fast ship container cable_car subway aircraft wheelchair scooter drone" oneway="0"/>

    <edge id=":10028973279_0" function="internal">
        <lane id=":10028973279_0_0" index="0" allow="pedestrian bicycle" speed="2.97" length="3.17" width="2.00" shape="1306.77,1241.86 1306.41,1242.19 1306.09,1242.41 1305.80,1242.54 1305.54,1242.57 1305.31,1242.49 1305.12,1242.32 1304.95,1242.04 1304.83,1241.67 1304.73,1241.19"/>
    </edge>
    <edge id=":10028987041_0" function="internal">
        <lane id=":10028987041_0_0" index="0" allow="pedestrian bicycle" speed="5.56" length="6.63" width="2.00" shape="1272.11,864.36 1271.64,863.31 1271.19,862.38 1270.75,861.56 1270.32,860.86 1269.90,860.27 1269.50,859.80 1269.11,859.45 1268.73,859.21 1268.37,859.08"/>
    </edge>
    <edge id=":10028987041_1" function="internal">
        <lane id=":10028987041_1_0" index="0" allow="pedestrian bicycle" speed="5.56" length="11.83" width="2.00" shape="1272.11,864.36 1271.44,862.59 1271.07,861.07 1271.00,859.80 1271.21,858.77 1271.71,857.99 1272.50,857.46 1273.59,857.18 1274.96,857.15 1276.63,857.36"/>
    </edge>
    <edge id=":10028987041_2" function="internal">
        <lane id=":10028987041_2_0" index="0" allow="pedestrian bicycle" speed="2.90" length="2.95" width="2.00" shape="1272.11,864.36 1272.15,863.91 1272.24,863.55 1272.37,863.28 1272.54,863.10 1272.74,863.02 1272.98,863.02 1273.27,863.11 1273.59,863.30 1273.95,863.58"/>
    </edge>
    <edge id=":10028987041_3" function="internal">
        <lane id=":10028987041_3_0" index="0" allow="pedestrian bicycle" speed="4.44" length="5.29" width="2.00" shape="1276.04,860.51 1275.29,860.41 1274.66,860.42 1274.17,860.54 1273.80,860.77 1273.57,861.11 1273.47,861.56 1273.50,862.13 1273.65,862.80 1273.95,863.58"/>
    </edge>
    <edge id=":10028987041_4" function="internal">
        <lane id=":10028987041_4_0" index="0" allow="pedestrian motorcycle moped bicycle" speed="5.56" length="7.81" shape="1276.04,860.51 1268.37,859.08"/>
    </edge>
    <edge id=":10028987041_5" function="internal">
        <lane id=":10028987041_5_0" index="0" allow="pedestrian motorcycle moped bicycle" speed="3.66" length="4.72" shape="1276.04,860.51 1275.49,860.04 1275.09,859.60 1274.84,859.20 1274.75,858.82 1274.82,858.47 1275.04,858.15 1275.41,857.86 1275.94,857.59 1276.63,857.36"/>
    </edge>
    <edge id=":10028987041_6" function="internal">
        <lane id=":10028987041_6_0" index="0" allow="pedestrian motorcycle moped bicycle" speed="5.56" length="7.82" shape="1268.94,855.94 1276.63,857.36"/>
    </edge>
    <edge id=":10028987041_7" function="internal">
        <lane id=":10028987041_7_0" index="0" allow="pedestrian bicycle" speed="5.56" length="9.32" width="2.00" shape="1268.94,855.94 1269.38,856.10 1269.85,856.43 1270.34,856.94 1270.87,857.62 1271.42,858.46 1272.01,859.49 1272.62,860.68 1273.27,862.04 1273.95,863.58"/>
    </edge>
    <edge id=":10028987041_8" function="internal">
        <lane id=":10028987041_8_0" index="0" allow="pedestrian motorcycle moped bicycle" speed="3.66" length="4.72" shape="1268.94,855.94 1269.50,856.40 1269.90,856.83 1270.15,857.24 1270.24,857.62 1270.18,857.97 1269.96,858.29 1269.58,858.58 1269.05,858.85 1268.37,859.08"/>
    </edge>
    <edge id=":10028987058_0" function="internal">
        <lane id=":10028987058_0_0" index="0" allow="pedestrian bicycle" speed="4.22" length="4.18" width="2.00" shape="1300.95,1161.73 1300.54,1161.33 1300.14,1161.03 1299.75,1160.85 1299.36,1160.76 1298.98,1160.78 1298.60,1160.91 1298.24,1161.15 1297.87,1161.49 1297.52,1161.93"/>
    </edge>
    <edge id=":10028987058_1" function="internal">
        <lane id=":10028987058_1_0" index="0" allow="pedestrian bicycle" speed="5.56" length="6.92" width="2.00" shape="1300.95,1161.73 1300.25,1160.97 1299.69,1160.35 1299.22,1159.84 1298.83,1159.36 1298.48,1158.89 1298.16,1158.38 1297.84,1157.77 1297.49,1157.01 1297.09,1156.07"/>
    </edge>
    <edge id=":10028987058_2" function="internal">
        <lane id=":10028987058_2_0" index="0" allow="pedestrian bicycle" speed="2.90" length="2.95" width="2.00" shape="1300.95,1161.73 1300.85,1161.29 1300.81,1160.92 1300.85,1160.62 1300.95,1160.40 1301.11,1160.25 1301.34,1160.18 1301.64,1160.17 1302.00,1160.25 1302.43,1160.39"/>
    </edge>
    <edge id=":10028987058_3" function="internal">
        <lane id=":10028987058_3_0" index="0" allow="pedestrian bicycle" speed="5.56" length="6.23" width="2.00" shape="1298.94,1155.30 1299.30,1156.15 1299.62,1156.83 1299.91,1157.38 1300.20,1157.84 1300.51,1158.26 1300.87,1158.69 1301.29,1159.15 1301.81,1159.71 1302.43,1160.39"/>
    </edge>
    <edge id=":10028987058_4" function="internal">
        <lane id=":10028987058_4_0" index="0" allow="pedestrian bicycle" speed="5.56" length="7.09" width="2.00" shape="1298.94,1155.30 1299.16,1155.96 1299.29,1156.64 1299.32,1157.33 1299.25,1158.05 1299.10,1158.79 1298.84,1159.55 1298.50,1160.32 1298.05,1161.12 1297.52,1161.93"/>
    </edge>
    <edge id=":10028987058_5" function="internal">
        <lane id=":10028987058_5_0" index="0" allow="pedestrian bicycle" speed="2.90" length="2.95" width="2.00" shape="1298.94,1155.30 1298.89,1155.75 1298.79,1156.11 1298.66,1156.38 1298.50,1156.56 1298.29,1156.64 1298.05,1156.63 1297.77,1156.54 1297.45,1156.35 1297.09,1156.07"/>
    </edge>
    <edge id=":10028987058_6" function="internal">
        <lane id=":10028987058_6_0" index="0" allow="pedestrian bicycle" speed="5.56" length="5.07" width="2.00" shape="1295.88,1160.78 1296.29,1160.17 1296.63,1159.57 1296.90,1159.00 1297.11,1158.46 1297.24,1157.93 1297.31,1157.43 1297.30,1156.96 1297.23,1156.50 1297.09,1156.07"/>
    </edge>
    <edge id=":10028987058_7" function="internal">
        <lane id=":10028987058_7_0" index="0" allow="pedestrian bicycle" speed="5.56" length="7.99" width="2.00" shape="1295.88,1160.78 1296.56,1159.93 1297.26,1159.28 1297.96,1158.83 1298.67,1158.59 1299.40,1158.54 1300.14,1158.70 1300.89,1159.06 1301.66,1159.62 1302.43,1160.39"/>
    </edge>
    <edge id=":10028987058_8" function="internal">
        <lane id=":10028987058_8_0" index="0" allow="pedestrian bicycle" speed="2.90" length="2.95" width="2.00" shape="1295.88,1160.78 1296.29,1160.59 1296.65,1160.47 1296.94,1160.44 1297.18,1160.49 1297.36,1160.61 1297.49,1160.82 1297.55,1161.11 1297.56,1161.48 1297.52,1161.93"/>
    </edge>
    <edge id=":10028987059_0" function="internal">
        <lane id=":10028987059_0_0" index="0" allow="pedestrian bicycle" speed="3.96" length="4.67" width="2.00" shape="1293.66,1171.03 1293.53,1170.31 1293.36,1169.75 1293.13,1169.34 1292.85,1169.08 1292.53,1168.97 1292.15,1169.01 1291.72,1169.21 1291.24,1169.55 1290.72,1170.05"/>
    </edge>
    <edge id=":10028987059_1" function="internal">
        <lane id=":10028987059_1_0" index="0" allow="pedestrian bicycle" speed="5.56" length="8.59" width="2.00" shape="1293.66,1171.03 1293.47,1169.78 1293.27,1168.74 1293.10,1167.84 1292.98,1167.04 1292.96,1166.29 1293.06,1165.55 1293.31,1164.76 1293.76,1163.87 1294.43,1162.84"/>
    </edge>
    <edge id=":10028987059_2" function="internal">
        <lane id=":10028987059_2_0" index="0" allow="pedestrian bicycle" speed="2.90" length="2.95" width="2.00" shape="1293.66,1171.03 1293.83,1170.61 1294.01,1170.28 1294.21,1170.06 1294.42,1169.93 1294.64,1169.91 1294.87,1169.97 1295.11,1170.14 1295.37,1170.41 1295.64,1170.77"/>
    </edge>
    <edge id=":10028987059_3" function="internal">
        <lane id=":10028987059_3_0" index="0" allow="pedestrian bicycle" speed="5.56" length="7.11" width="2.00" shape="1296.06,1164.00 1295.52,1164.85 1295.17,1165.58 1294.99,1166.24 1294.94,1166.85 1295.00,1167.47 1295.12,1168.13 1295.30,1168.88 1295.48,1169.74 1295.64,1170.77"/>
    </edge>
    <edge id=":10028987059_4" function="internal">
        <lane id=":10028987059_4_0" index="0" allow="pedestrian bicycle" speed="5.56" length="8.09" width="2.00" shape="1296.06,1164.00 1295.36,1164.98 1294.77,1165.76 1294.26,1166.39 1293.80,1166.92 1293.33,1167.42 1292.83,1167.92 1292.25,1168.49 1291.56,1169.19 1290.72,1170.05"/>
    </edge>
    <edge id=":10028987059_5" function="internal">
        <lane id=":10028987059_5_0" index="0" allow="pedestrian bicycle" speed="2.90" length="2.95" width="2.00" shape="1296.06,1164.00 1295.65,1164.19 1295.30,1164.30 1295.00,1164.34 1294.77,1164.29 1294.58,1164.16 1294.46,1163.95 1294.39,1163.66 1294.38,1163.29 1294.43,1162.84"/>
    </edge>
    <edge id=":10028987059_6" function="internal">
        <lane id=":10028987059_6_0" index="0" allow="pedestrian bicycle" speed="5.56" length="7.79" width="2.00" shape="1289.28,1168.66 1290.09,1167.83 1290.76,1167.17 1291.31,1166.62 1291.80,1166.13 1292.25,1165.65 1292.70,1165.14 1293.18,1164.53 1293.75,1163.79 1294.43,1162.84"/>
    </edge>
    <edge id=":10028987059_7" function="internal">
        <lane id=":10028987059_7_0" index="0" allow="pedestrian bicycle" speed="5.55" length="10.10" width="2.00" shape="1289.28,1168.66 1290.42,1167.59 1291.45,1166.84 1292.38,1166.42 1293.19,1166.33 1293.90,1166.56 1294.50,1167.12 1294.99,1168.01 1295.37,1169.23 1295.64,1170.77"/>
    </edge>
    <edge id=":10028987059_8" function="internal">
        <lane id=":10028987059_8_0" index="0" allow="pedestrian bicycle" speed="2.90" length="2.95" width="2.00" shape="1289.28,1168.66 1289.71,1168.53 1290.08,1168.47 1290.37,1168.49 1290.60,1168.57 1290.76,1168.72 1290.85,1168.95 1290.88,1169.24 1290.83,1169.61 1290.72,1170.05"/>
    </edge>
    <edge id=":1004041298_0" function="internal">
        <lane id=":1004041298_0_0" index="0" allow="pedestrian motorcycle moped bicycle" speed="5.56" length="19.41" shape="639.83,500.38 622.20,492.26"/>
    </edge>
    <edge id=":1004041298_1" function="internal">
        <lane id=":1004041298_1_0" index="0" allow="pedestrian bicycle" speed="5.56" length="19.90" width="2.00" shape="639.83,500.38 638.26,499.48 636.62,498.19 634.94,496.62 633.24,494.86 631.53,493.03 629.86,491.22 628.23,489.54 626.68,488.09 625.23,486.98"/>
    </edge>
    <edge id=":1004041298_2" function="internal">
        <lane id=":1004041298_2_0" index="0" allow="pedestrian motorcycle moped bicycle" speed="3.66" length="4.72" shape="639.83,500.38 639.39,499.80 639.10,499.28 638.96,498.83 638.96,498.44 639.10,498.12 639.39,497.85 639.82,497.66 640.40,497.52 641.12,497.45"/>
    </edge>
    <edge id=":1004041298_3" function="internal">
        <lane id=":1004041298_3_0" index="0" allow="pedestrian bicycle" speed="5.56" length="18.74" width="2.00" shape="626.71,485.56 628.16,486.62 629.69,487.93 631.29,489.41 632.94,490.98 634.61,492.56 636.28,494.08 637.94,495.45 639.56,496.60 641.12,497.45"/>
    </edge>
    <edge id=":1004041298_4" function="internal">
        <lane id=":1004041298_4_0" index="0" allow="pedestrian bicycle" speed="5.14" length="11.52" width="2.00" shape="626.71,485.56 627.69,486.49 628.14,487.58 628.14,488.75 627.75,489.91 627.04,490.96 626.06,491.81 624.89,492.37 623.58,492.55 622.20,492.26"/>
    </edge>
    <edge id=":1004041298_5" function="internal">
        <lane id=":1004041298_5_0" index="0" allow="pedestrian bicycle" speed="2.92" length="3.03" width="2.00" shape="626.71,485.56 626.83,486.01 626.87,486.39 626.85,486.69 626.75,486.92 626.59,487.08 626.35,487.17 626.05,487.18 625.67,487.11 625.23,486.98"/>
    </edge>
    <edge id=":1004041298_6" function="internal">
        <lane id=":1004041298_6_0" index="0" allow="pedestrian bicycle" speed="5.56" length="14.86" width="2.00" shape="623.63,489.39 626.34,490.43 628.42,491.14 629.86,491.52 630.67,491.58 630.85,491.32 630.39,490.72 629.30,489.80 627.58,488.55 625.23,486.98"/>
    </edge>
    <edge id=":1004041298_7" function="internal">
        <lane id=":1004041298_7_0" index="0" allow="pedestrian motorcycle moped bicycle" speed="5.56" length="19.25" shape="623.63,489.39 641.12,497.45"/>
    </edge>
    <edge id=":1004041298_8" function="internal">
        <lane id=":1004041298_8_0" index="0" allow="pedestrian motorcycle moped bicycle" speed="3.67" length="4.74" shape="623.63,489.39 624.04,489.99 624.31,490.52 624.43,490.98 624.42,491.37 624.26,491.69 623.96,491.94 623.51,492.12 622.93,492.23 622.20,492.26"/>
    </edge>
    <edge id=":1004041384_0" function="internal">
        <lane id=":1004041384_0_0" index="0" allow="pedestrian bicycle" speed="5.56" length="9.01" width="2.00" shape="671.34,365.32 670.41,374.28"/>
    </edge>
    <edge id=":1004041384_1" function="internal">
        <lane id=":1004041384_1_0" index="0" allow="pedestrian bicycle" speed="5.56" length="9.60" width="2.00" shape="671.34,365.32 671.20,366.67 670.93,367.71 670.53,368.53 670.02,369.19 669.40,369.76 668.66,370.32 667.82,370.94 666.88,371.68 665.84,372.63"/>
    </edge>
    <edge id=":1004041384_2" function="internal">
        <lane id=":1004041384_2_0" index="0" allow="pedestrian bicycle" speed="2.90" length="2.95" width="2.00" shape="671.34,365.32 671.10,365.70 670.86,365.99 670.63,366.17 670.40,366.26 670.18,366.25 669.96,366.14 669.75,365.93 669.54,365.63 669.34,365.22"/>
    </edge>
    <edge id=":1004041384_3" function="internal">
        <lane id=":1004041384_3_0" index="0" allow="pedestrian bicycle" speed="5.56" length="7.96" width="2.00" shape="664.56,371.08 665.43,370.30 666.23,369.70 666.95,369.22 667.60,368.79 668.16,368.34 668.61,367.83 668.97,367.18 669.22,366.33 669.34,365.22"/>
    </edge>
    <edge id=":1004041384_4" function="internal">
        <lane id=":1004041384_4_0" index="0" allow="pedestrian bicycle" speed="5.56" length="11.89" width="2.00" shape="664.56,371.08 665.99,369.78 667.22,368.90 668.26,368.43 669.10,368.37 669.75,368.72 670.21,369.49 670.47,370.67 670.54,372.27 670.41,374.28"/>
    </edge>
    <edge id=":1004041384_5" function="internal">
        <lane id=":1004041384_5_0" index="0" allow="pedestrian bicycle" speed="2.90" length="2.96" width="2.00" shape="664.56,371.08 665.01,371.00 665.38,370.98 665.68,371.03 665.89,371.14 666.04,371.31 666.10,371.55 666.09,371.84 666.00,372.20 665.84,372.63"/>
    </edge>
    <edge id=":1004041384_6" function="internal">
        <lane id=":1004041384_6_0" index="0" allow="pedestrian bicycle" speed="3.99" length="5.24" width="2.00" shape="668.43,374.02 668.48,373.14 668.45,372.44 668.34,371.92 668.13,371.58 667.85,371.43 667.47,371.45 667.01,371.66 666.47,372.06 665.84,372.63"/>
    </edge>
    <edge id=":1004041384_7" function="internal">
        <lane id=":1004041384_7_0" index="0" allow="pedestrian bicycle" speed="5.56" length="8.85" width="2.00" shape="668.43,374.02 669.34,365.22"/>
    </edge>
    <edge id=":1004041384_8" function="internal">
        <lane id=":1004041384_8_0" index="0" allow="pedestrian bicycle" speed="2.90" length="2.95" width="2.00" shape="668.43,374.02 668.70,373.66 668.96,373.39 669.20,373.23 669.43,373.16 669.66,373.19 669.86,373.31 670.06,373.54 670.24,373.86 670.41,374.28"/>
    </edge>
    <edge id=":10591687343_0" function="internal">
        <lane id=":10591687343_0_0" index="0" allow="pedestrian delivery bicycle" speed="5.56" length="4.89" shape="689.96,257.86 688.37,262.48"/>
    </edge>
    <edge id=":10591687343_1" function="internal">
        <lane id=":10591687343_1_0" index="0" allow="pedestrian delivery bicycle" speed="3.66" length="4.72" shape="689.96,257.86 689.44,258.36 688.96,258.71 688.53,258.91 688.14,258.96 687.80,258.86 687.51,258.60 687.26,258.20 687.05,257.64 686.90,256.93"/>
    </edge>
    <edge id=":10591687343_2" function="internal">
        <lane id=":10591687343_2_0" index="0" allow="pedestrian delivery bicycle" speed="5.56" length="4.66" shape="685.38,261.34 686.90,256.93"/>
    </edge>
    <edge id=":10591687343_3" function="internal">
        <lane id=":10591687343_3_0" index="0" allow="pedestrian delivery bicycle" speed="3.66" length="4.72" shape="685.38,261.34 685.94,260.88 686.44,260.56 686.88,260.40 687.27,260.37 687.61,260.50 687.88,260.77 688.10,261.20 688.27,261.77 688.37,262.48"/>
    </edge>
    <edge id=":10893194506_0" function="internal">
        <lane id=":10893194506_0_0" index="0" disallow="tram rail_urban rail rail_electric rail_fast ship container cable_car subway aircraft wheelchair scooter drone" speed="8.33" length="47.50" shape="831.89,402.06 829.42,400.78 825.35,398.53 820.13,395.59 814.23,392.22 808.12,388.69 802.24,385.27 797.08,382.23 793.09,379.83 790.73,378.36"/>
    </edge>
    <edge id=":10893194506_1" function="internal">
        <lane id=":10893194506_1_0" index="0" allow="pedestrian bicycle" speed="6.95" length="8.93" width="2.00" shape="831.89,402.06 829.49,400.65 825.61,398.05 824.40,397.20"/>
    </edge>
    <edge id=":10893194506_7" function="internal">
        <lane id=":10893194506_7_0" index="0" allow="pedestrian bicycle" speed="6.95" length="38.64" width="2.00" shape="824.40,397.20 820.68,394.58 815.17,390.55 809.50,386.28 804.13,382.09 799.50,378.30 796.05,375.22 794.23,373.17"/>
    </edge>
    <edge id=":10893194506_2" function="internal">
        <lane id=":10893194506_2_0" index="0" allow="pedestrian bicycle" speed="6.95" length="45.82" width="2.00" shape="796.14,372.47 797.94,374.44 801.34,377.32 805.90,380.82 811.18,384.67 816.76,388.57 822.19,392.25 827.04,395.43 830.87,397.83 833.25,399.17"/>
    </edge>
    <edge id=":10893194506_3" function="internal">
        <lane id=":10893194506_3_0" index="0" allow="pedestrian bicycle" speed="6.92" length="20.00" width="2.00" shape="796.14,372.47 797.94,375.65 799.13,378.21 799.73,380.13 799.72,381.42 799.12,382.07 797.92,382.09 796.12,381.48 793.72,380.24 790.73,378.36"/>
    </edge>
    <edge id=":10893194506_4" function="internal">
        <lane id=":10893194506_4_0" index="0" allow="pedestrian bicycle" speed="2.91" length="3.00" width="2.00" shape="796.14,372.47 796.07,372.92 795.96,373.28 795.82,373.55 795.64,373.72 795.43,373.80 795.18,373.78 794.90,373.67 794.58,373.47 794.23,373.17"/>
    </edge>
    <edge id=":10893194506_5" function="internal">
        <lane id=":10893194506_5_0" index="0" allow="pedestrian bicycle" speed="4.69" length="7.77" width="2.00" shape="792.11,375.44 793.27,376.17 794.21,376.65 794.91,376.89 795.38,376.89 795.62,376.63 795.62,376.14 795.39,375.39 794.93,374.40 794.23,373.17"/>
    </edge>
    <edge id=":10893194506_6" function="internal">
        <lane id=":10893194506_6_0" index="0" disallow="tram rail_urban rail rail_electric rail_fast ship container cable_car subway aircraft wheelchair scooter drone" speed="8.33" length="47.50" shape="792.11,375.44 794.46,376.91 798.46,379.30 803.62,382.35 809.49,385.77 815.60,389.31 821.50,392.69 826.71,395.63 830.78,397.88 833.25,399.17"/>
    </edge>
    <edge id=":10893194529_0" function="internal">
        <lane id=":10893194529_0_0" index="0" allow="pedestrian bicycle" speed="4.63" length="4.78" width="2.00" shape="756.01,276.59 755.71,276.06 755.39,275.65 755.03,275.36 754.63,275.18 754.20,275.12 753.73,275.18 753.23,275.36 752.70,275.65 752.13,276.06"/>
    </edge>
    <edge id=":10893194529_1" function="internal">
        <lane id=":10893194529_1_0" index="0" disallow="tram rail_urban rail rail_electric rail_fast ship container cable_car subway aircraft wheelchair scooter drone" speed="13.89" length="6.77" shape="756.01,276.59 753.14,270.46"/>
    </edge>
    <edge id=":10893194529_2" function="internal">
        <lane id=":10893194529_2_0" index="0" disallow="tram rail_urban rail rail_electric rail_fast ship container cable_car subway aircraft wheelchair scooter drone" speed="13.89" length="6.77" shape="756.04,269.10 758.90,275.23"/>
    </edge>
    <edge id=":10893194529_3" function="internal">
        <lane id=":10893194529_3_0" index="0" allow="pedestrian bicycle" speed="6.95" length="1.80" width="2.00" shape="756.04,269.10 756.24,269.74 756.29,270.41 756.22,270.86"/>
    </edge>
    <edge id=":10893194529_7" function="internal">
        <lane id=":10893194529_7_0" index="0" allow="pedestrian bicycle" speed="6.95" length="6.75" width="2.00" shape="756.22,270.86 756.18,271.12 755.91,271.85 755.47,272.63 754.88,273.44 754.12,274.28 753.20,275.15 752.13,276.06"/>
    </edge>
    <edge id=":10893194529_4" function="internal">
        <lane id=":10893194529_4_0" index="0" allow="pedestrian bicycle" speed="5.31" length="4.96" width="2.00" shape="750.88,274.50 751.50,273.97 752.03,273.47 752.47,272.98 752.82,272.51 753.07,272.06 753.22,271.63 753.29,271.22 753.26,270.83 753.14,270.46"/>
    </edge>
    <edge id=":10893194529_5" function="internal">
        <lane id=":10893194529_5_0" index="0" allow="pedestrian bicycle" speed="6.13" length="9.80" width="2.00" shape="750.88,274.50 752.08,273.63 753.21,272.99 754.25,272.59 755.22,272.44 756.12,272.52 756.93,272.84 757.67,273.40 758.32,274.19 758.90,275.23"/>
    </edge>
    <edge id=":10893194529_6" function="internal">
        <lane id=":10893194529_6_0" index="0" allow="pedestrian bicycle" speed="2.90" length="2.95" width="2.00" shape="750.88,274.50 751.32,274.43 751.69,274.42 751.99,274.47 752.20,274.58 752.34,274.75 752.40,274.99 752.39,275.28 752.30,275.64 752.13,276.06"/>
    </edge>
    <edge id=":10991385370_0" function="internal">
        <lane id=":10991385370_0_0" index="0" allow="pedestrian bicycle" speed="2.90" length="2.95" width="2.00" shape="1317.52,1181.53 1317.38,1181.96 1317.22,1182.30 1317.04,1182.54 1316.84,1182.68 1316.63,1182.72 1316.39,1182.67 1316.13,1182.52 1315.86,1182.27 1315.56,1181.93"/>
    </edge>
    <edge id=":11257036511_0" function="internal">
        <lane id=":11257036511_0_0" index="0" allow="pedestrian delivery bicycle" speed="4.95" length="8.83" shape="880.96,527.65 880.66,526.04 880.34,524.80 879.99,523.95 879.62,523.47 879.22,523.38 878.79,523.66 878.33,524.32 877.85,525.36 877.34,526.78"/>
    </edge>
    <edge id=":11257036511_1" function="internal">
        <lane id=":11257036511_1_0" index="0" allow="pedestrian delivery bicycle" speed="5.56" length="12.66" shape="880.96,527.65 879.01,515.14"/>
    </edge>
    <edge id=":11257036511_2" function="internal">
        <lane id=":11257036511_2_0" index="0" allow="pedestrian delivery bicycle" speed="3.66" length="4.72" shape="880.96,527.65 881.21,526.97 881.49,526.45 881.79,526.08 882.12,525.87 882.47,525.82 882.84,525.92 883.24,526.18 883.67,526.59 884.12,527.16"/>
    </edge>
    <edge id=":11257036511_3" function="internal">
        <lane id=":11257036511_3_0" index="0" allow="pedestrian delivery bicycle" speed="5.56" length="12.66" shape="882.17,514.65 884.12,527.16"/>
    </edge>
    <edge id=":11257036511_4" function="internal">
        <lane id=":11257036511_4_0" index="0" allow="pedestrian delivery bicycle" speed="5.56" length="13.33" shape="882.17,514.65 882.26,516.21 882.05,517.62 881.60,518.93 880.98,520.17 880.25,521.39 879.45,522.62 878.66,523.90 877.94,525.27 877.34,526.78"/>
    </edge>
    <edge id=":11257036511_5" function="internal">
        <lane id=":11257036511_5_0" index="0" allow="pedestrian delivery bicycle" speed="3.66" length="4.72" shape="882.17,514.65 881.92,515.33 881.64,515.85 881.34,516.22 881.01,516.43 880.66,516.48 880.28,516.38 879.88,516.12 879.46,515.71 879.01,515.14"/>
    </edge>
    <edge id=":11257036511_6" function="internal">
        <lane id=":11257036511_6_0" index="0" allow="pedestrian delivery bicycle" speed="5.56" length="10.83" shape="874.67,524.66 875.25,523.24 875.93,522.11 876.65,521.17 877.37,520.36 878.02,519.57 878.57,518.74 878.95,517.78 879.11,516.61 879.01,515.14"/>
    </edge>
    <edge id=":11257036511_7" function="internal">
        <lane id=":11257036511_7_0" index="0" allow="pedestrian delivery bicycle" speed="5.56" length="13.55" shape="874.67,524.66 875.41,523.21 876.44,522.27 877.68,521.82 879.02,521.81 880.39,522.21 881.67,522.98 882.78,524.08 883.63,525.49 884.12,527.16"/>
    </edge>
    <edge id=":11257036511_8" function="internal">
        <lane id=":11257036511_8_0" index="0" allow="pedestrian delivery bicycle" speed="3.74" length="5.04" shape="874.67,524.66 875.38,524.36 876.00,524.20 876.50,524.18 876.91,524.28 877.20,524.52 877.40,524.88 877.48,525.38 877.47,526.02 877.34,526.78"/>
    </edge>
    <edge id=":11257036519_0" function="internal">
        <lane id=":11257036519_0_0" index="0" allow="pedestrian delivery bicycle" speed="5.56" length="10.23" shape="882.32,536.38 875.27,543.79"/>
    </edge>
    <edge id=":11257036519_1" function="internal">
        <lane id=":11257036519_1_0" index="0" allow="pedestrian delivery bicycle" speed="5.56" length="16.65" shape="882.32,536.38 880.19,538.38 878.34,539.80 876.76,540.65 875.45,540.94 874.42,540.65 873.67,539.80 873.19,538.38 872.99,536.39 873.07,533.83"/>
    </edge>
    <edge id=":11257036519_2" function="internal">
        <lane id=":11257036519_2_0" index="0" allow="pedestrian delivery bicycle" speed="3.66" length="4.72" shape="882.32,536.38 881.62,536.58 881.04,536.67 880.56,536.64 880.20,536.50 879.95,536.25 879.81,535.89 879.78,535.41 879.86,534.83 880.05,534.13"/>
    </edge>
    <edge id=":11257036519_3" function="internal">
        <lane id=":11257036519_3_0" index="0" allow="pedestrian delivery bicycle" speed="4.64" length="6.76" shape="876.34,532.98 876.31,534.04 876.39,534.86 876.58,535.45 876.88,535.81 877.29,535.94 877.81,535.83 878.45,535.50 879.19,534.93 880.05,534.13"/>
    </edge>
    <edge id=":11257036519_4" function="internal">
        <lane id=":11257036519_4_0" index="0" allow="pedestrian delivery bicycle" speed="5.56" length="11.28" shape="876.34,532.98 876.31,534.54 876.43,535.92 876.62,537.16 876.81,538.29 876.93,539.36 876.91,540.41 876.67,541.47 876.15,542.59 875.27,543.79"/>
    </edge>
    <edge id=":11257036519_5" function="internal">
        <lane id=":11257036519_5_0" index="0" allow="pedestrian delivery bicycle" speed="3.73" length="4.99" shape="876.34,532.98 876.14,533.72 875.90,534.30 875.62,534.72 875.30,534.97 874.94,535.07 874.53,535.00 874.09,534.77 873.60,534.38 873.07,533.83"/>
    </edge>
    <edge id=":11257036519_6" function="internal">
        <lane id=":11257036519_6_0" index="0" allow="pedestrian delivery bicycle" speed="5.56" length="8.29" shape="872.84,541.71 873.51,540.78 873.87,539.96 873.97,539.21 873.89,538.49 873.70,537.75 873.45,536.95 873.22,536.06 873.07,535.04 873.07,533.83"/>
    </edge>
    <edge id=":11257036519_7" function="internal">
        <lane id=":11257036519_7_0" index="0" allow="pedestrian delivery bicycle" speed="5.56" length="10.46" shape="872.84,541.71 880.05,534.13"/>
    </edge>
    <edge id=":11257036519_8" function="internal">
        <lane id=":11257036519_8_0" index="0" allow="pedestrian delivery bicycle" speed="3.66" length="4.72" shape="872.84,541.71 873.52,541.46 874.10,541.33 874.57,541.32 874.95,541.43 875.22,541.67 875.38,542.02 875.45,542.49 875.41,543.08 875.27,543.79"/>
    </edge>
    <edge id=":11257036521_0" function="internal">