<?xml version="1.0" encoding="UTF-8"?>

<!-- generated on 2026-03-14T16:38:19.480229+01:00 by Eclipse SUMO netedit 1.26.0
<neteditConfiguration xmlns:xsi="http://www.w3.org/2001/XMLSchema-instance" xsi:noNamespaceSchemaLocation="http://sumo.dlr.de/xsd/neteditConfiguration.xsd">

    <input>
        <sumo-net-file value="/home/miguel/6.Projects/ReplicateSongThesis/Examples/duarouter/input.net.xml"/>
    </input>

    <output>
        <output-file value="/home/miguel/6.Projects/ReplicateSongThesis/Examples/duarouter/input.net.xml"/>
    </output>

    <processing>
        <geometry.min-radius.fix.railways value="false"/>
        <geometry.avoid-overlap value="false"/>
        <geometry.max-grade.fix value="false"/>
        <offset.disable-normalization value="true"/>
        <lefthand value="0"/>
    </processing>

    <junctions>
        <no-turnarounds value="true"/>
        <junctions.corner-detail value="5"/>
        <junctions.limit-turn-speed value="5.50"/>
        <rectangular-lane-cut value="0"/>
    </junctions>

    <pedestrian>
        <walkingareas value="0"/>
    </pedestrian>

</neteditConfiguration>
-->

<net version="1.20" junctionCornerDetail="5" limitTurnSpeed="5.50" avoidOverlap="0" xmlns:xsi="http://www.w3.org/2001/XMLSchema-instance" xsi:noNamespaceSchemaLocation="http://sumo.dlr.de/xsd/net_file.xsd">

    <location netOffset="0.00,0.00" convBoundary="-101.31,-41.53,207.84,80.72" origBoundary="-10000000000.00,-10000000000.00,10000000000.00,10000000000.00" projParameter="!"/>

    <edge id=":J10_0" function="internal">
        <lane id=":J10_0_0" index="0" speed="3.95" length="2.01" shape="40.16,78.05 40.62,78.32 41.08,78.42 41.55,78.36 42.02,78.12"/>
    </edge>
    <edge id=":J5_0" function="internal">
        <lane id=":J5_0_0" index="0" speed="13.89" length="8.15" shape="-52.63,6.91 -44.48,6.95"/>
    </edge>
    <edge id=":J5_1" function="internal">
        <lane id=":J5_1_0" index="0" speed="11.06" length="8.10" shape="-52.63,6.91 -50.34,7.21 -48.90,7.95 -47.61,9.13 -45.79,10.73"/>
    </edge>
    <edge id=":J6_0" function="internal">
        <lane id=":J6_0_0" index="0" speed="13.89" length="11.28" shape="50.40,1.29 50.12,12.57"/>
    </edge>
    <edge id=":J6_1" function="internal">
        <lane id=":J6_1_0" index="0" speed="13.89" length="11.32" shape="44.56,6.95 55.88,6.92"/>
    </edge>
    <edge id=":J7_0" function="internal">
        <lane id=":J7_0_0" index="0" speed="13.89" length="8.86" shape="144.47,6.56 153.34,6.51"/>
    </edge>
    <edge id=":J7_1" function="internal">
        <lane id=":J7_1_0" index="0" speed="12.81" length="8.86" shape="145.60,10.31 147.73,8.73 149.21,7.55 150.82,6.80 153.34,6.51"/>
    </edge>

    <edge id="E10" from="J10" to="J7" priority="-1">
        <lane id="E10_0" index="0" speed="13.89" length="123.80" shape="42.02,78.12 145.60,10.31"/>
    </edge>
    <edge id="E11" from="J11" to="J5" priority="-1">
        <lane id="E11_0" index="0" speed="13.89" length="48.66" shape="-101.27,5.71 -52.63,6.91"/>
    </edge>
    <edge id="E12" from="J7" to="J12" priority="-1">
        <lane id="E12_0" index="0" speed="13.89" length="54.48" shape="153.34,6.51 207.82,5.81"/>
    </edge>
    <edge id="E5" from="J5" to="J6" priority="-1">
        <lane id="E5_0" index="0" speed="13.89" length="89.04" shape="-44.48,6.95 44.56,6.95"/>
    </edge>
    <edge id="E6" from="J6" to="J7" priority="-1">
        <lane id="E6_0" index="0" speed="13.89" length="88.60" shape="55.88,6.92 144.47,6.56"/>
    </edge>
    <edge id="E7" from="J8" to="J6" priority="0">
        <lane id="E7_0" index="0" speed="13.89" length="42.79" shape="51.84,-41.48 50.40,1.29"/>
    </edge>
    <edge id="E8" from="J6" to="J9" priority="-1">
        <lane id="E8_0" index="0" speed="13.89" length="39.76" shape="50.12,12.57 49.74,52.33"/>
    </edge>
    <edge id="E9" from="J5" to="J10" priority="-1">
        <lane id="E9_0" index="0" speed="13.89" length="109.17" shape="-45.79,10.73 40.16,78.05"/>
    </edge>

    <junction id="J10" type="priority" x="40.98" y="80.72" incLanes="E9_0" intLanes=":J10_0_0" shape="42.90,79.46 41.15,76.79 39.17,79.31 40.39,79.95 41.01,80.05 41.63,80.00 42.26,79.81">
        <request index="0" response="0" foes="0" cont="0"/>
    </junction>
    <junction id="J11" type="dead_end" x="-101.31" y="7.31" incLanes="" intLanes="" shape="-101.31,7.31 -101.23,4.11"/>
    <junction id="J12" type="dead_end" x="207.84" y="7.41" incLanes="E12_0" intLanes="" shape="207.80,4.21 207.84,7.41"/>
    <junction id="J5" type="priority" x="-51.17" y="8.55" incLanes="E11_0" intLanes=":J5_0_0 :J5_1_0" shape="-46.77,11.99 -44.80,9.47 -45.29,8.96 -45.31,8.78 -45.18,8.65 -44.91,8.58 -44.48,8.55 -44.48,5.35 -52.59,5.31 -52.67,8.51 -50.22,8.98 -49.45,9.49 -48.74,10.17 -47.91,11.01">
        <request index="0" response="00" foes="00" cont="0"/>
        <request index="1" response="00" foes="00" cont="0"/>
    </junction>
    <junction id="J6" type="priority" x="48.56" y="8.55" incLanes="E7_0 E5_0" intLanes=":J6_0_0 :J6_1_0" shape="55.88,8.52 55.87,5.32 53.66,4.89 52.90,4.33 52.37,3.56 52.07,2.56 52.00,1.34 48.81,1.23 48.27,3.52 47.68,4.32 46.86,4.89 45.82,5.24 44.56,5.35 44.56,8.55 46.78,8.99 47.55,9.55 48.10,10.33 48.42,11.33 48.52,12.55 51.72,12.58 52.20,10.33 52.78,9.54 53.59,8.98 54.62,8.64">
        <request index="0" response="00" foes="10" cont="0"/>
        <request index="1" response="01" foes="01" cont="0"/>
    </junction>
    <junction id="J7" type="right_before_left" x="151.86" y="8.13" incLanes="E6_0 E10_0" intLanes=":J7_0_0 :J7_1_0" shape="153.36,8.11 153.32,4.91 144.47,4.96 144.48,8.16 144.73,8.98 146.48,11.65 148.84,9.80 149.68,9.11 150.58,8.58 151.73,8.24">
        <request index="0" response="00" foes="10" cont="0"/>
        <request index="1" response="01" foes="01" cont="0"/>
    </junction>
    <junction id="J8" type="dead_end" x="50.24" y="-41.53" incLanes="" intLanes="" shape="50.24,-41.53 53.44,-41.42"/>
    <junction id="J9" type="dead_end" x="48.14" y="52.31" incLanes="E8_0" intLanes="" shape="51.34,52.34 48.14,52.31"/>

    <connection from="E10" to="E12" fromLane="0" toLane="0" via=":J7_1_0" dir="s" state="="/>
    <connection from="E11" to="E5" fromLane="0" toLane="0" via=":J5_0_0" dir="s" state="M"/>
    <connection from="E11" to="E9" fromLane="0" toLane="0" via=":J5_1_0" dir="L" state="M"/>
    <connection from="E5" to="E6" fromLane="0" toLane="0" via=":J6_1_0" dir="s" state="m"/>
    <connection from="E6" to="E12" fromLane="0" toLane="0" via=":J7_0_0" dir="s" state="M"/>
    <connection from="E7" to="E8" fromLane="0" toLane="0" via=":J6_0_0" dir="s" state="M"/>
    <connection from="E9" to="E10" fromLane="0" toLane="0" via=":J10_0_0" dir="r" state="M"/>

    <connection from=":J10_0" to="E10" fromLane="0" toLane="0" dir="r" state="M"/>
    <connection from=":J5_0" to="E5" fromLane="0" toLane="0" dir="s" state="M"/>
    <connection from=":J5_1" to="E9" fromLane="0" toLane="0" dir="L" state="M"/>
    <connection from=":J6_0" to="E8" fromLane="0" toLane="0" dir="s" state="M"/>
    <connection from=":J6_1" to="E6" fromLane="0" toLane="0" dir="s" state="M"/>
    <connection from=":J7_0" to="E12" fromLane="0" toLane="0" dir="s" state="M"/>
    <connection from=":J7_1" to="E12" fromLane="0" toLane="0" dir="s" state="M"/>

</net>
