<?xml version="1.0" encoding="UTF-8"?>

<!-- generated on 2026-03-26T00:41:35.690187+01:00 by Eclipse SUMO duarouter 1.26.0
<duarouterConfiguration xmlns:xsi="http://www.w3.org/2001/XMLSchema-instance" xsi:noNamespaceSchemaLocation="http://sumo.dlr.de/xsd/duarouterConfiguration.xsd">

    <input>
        <net-file value="/home/miguel/6.Projects/ReplicateSongThesis/sumo/net/thesisToyNetwork.net.xml"/>
        <additional-files value="/home/miguel/6.Projects/ReplicateSongThesis/sumo/additional/vtype.add.xml"/>
        <route-files value="/home/miguel/6.Projects/ReplicateSongThesis/sumo/trips/trips.trips.xml"/>
    </input>

    <output>
        <output-file value="/home/miguel/6.Projects/ReplicateSongThesis/sumo/routes/routes.rou.xml"/>
    </output>

</duarouterConfiguration>
-->

<routes xmlns:xsi="http://www.w3.org/2001/XMLSchema-instance" xsi:noNamespaceSchemaLocation="http://sumo.dlr.de/xsd/routes_file.xsd">
    <vType id="Trucks" length="8.00" maxSpeed="5.00" probability="0.20" vClass="truck" color="green" accel="1" decel="5"/>
    <vehicle id="veh_0" type="Trucks" depart="0.00">
        <route edges="E2 E4 -E5 -E1"/>
    </vehicle>
    <vType id="normal_car" maxSpeed="20.00" probability="0.80" color="yellow" accel="2" decel="5"/>
    <vehicle id="veh_1" type="normal_car" depart="50.00">
        <route edges="-E4 -E2 -E1 -E3"/>
    </vehicle>
    <vehicle id="veh_2" type="normal_car" depart="100.00">
        <route edges="E3"/>
    </vehicle>
    <vehicle id="veh_3" type="normal_car" depart="150.00">
        <route edges="E4 -E5 -E1"/>
    </vehicle>
    <vehicle id="veh_4" type="normal_car" depart="200.00">
        <route edges="-E5 -E1"/>
    </vehicle>
    <vehicle id="veh_5" type="normal_car" depart="250.00">
        <route edges="-E3 E4 -E5 E2 E3 E1"/>
    </vehicle>
    <vehicle id="veh_6" type="normal_car" depart="300.00">
        <route edges="-E1 -E3"/>
    </vehicle>
    <vehicle id="veh_7" type="normal_car" depart="350.00">
        <route edges="E2 E3 E1"/>
    </vehicle>
    <vehicle id="veh_8" type="normal_car" depart="400.00">
        <route edges="-E3 E4 -E5 E2"/>
    </vehicle>
    <vehicle id="veh_9" type="normal_car" depart="450.00">
        <route edges="E3 E1 E2 E4 -E5 -E1"/>
    </vehicle>
    <vehicle id="veh_10" type="normal_car" depart="500.00">
        <route edges="E3"/>
    </vehicle>
    <vehicle id="veh_11" type="normal_car" depart="550.00">
        <route edges="-E4 -E2"/>
    </vehicle>
    <vehicle id="veh_12" type="normal_car" depart="600.00">
        <route edges="E5 -E4"/>
    </vehicle>
    <vehicle id="veh_13" type="normal_car" depart="650.00">
        <route edges="-E2"/>
    </vehicle>
    <vehicle id="veh_14" type="normal_car" depart="700.00">
        <route edges="E4 -E5 E2"/>
    </vehicle>
    <vehicle id="veh_15" type="normal_car" depart="750.00">
        <route edges="E3 E1 E2 E4"/>
    </vehicle>
    <vehicle id="veh_16" type="normal_car" depart="800.00">
        <route edges="E0 E1 E5 E6"/>
    </vehicle>
    <vehicle id="veh_17" type="Trucks" depart="850.00">
        <route edges="-E5 E2"/>
    </vehicle>
    <vehicle id="veh_18" type="normal_car" depart="900.00">
        <route edges="E4 -E5 E2"/>
    </vehicle>
    <vehicle id="veh_19" type="normal_car" depart="950.00">
        <route edges="E4 -E5 E2"/>
    </vehicle>
</routes>
